LTspice 24.0.12 for Windows
Circuit: * C:\users\Denise.Viltes\OneDrive - Toyota Argentina S.A\Documentos\dce-g5-proyecto_integrador-main\dce-g5-proyecto_integrador-main\Checkpoint 4\Support\Support4.asc
Start Time: Sat Nov 16 22:49:42 2024
Questionable use of curly braces in "b§e_abmgate yint 0 v={if(v(a)>{{vthresh}},{{vss}},{{vdd}})}"
    Error: undefined symbol in: "if([v](a)>((vthresh)),((vss)),((vdd)))"
Questionable use of curly braces in "b§e_abmgate yint 0 v={if(v(a)>{{vthresh}}&v(b)>{{vthresh}},{{vdd}},{{vss}})}"
    Error: undefined symbol in: "if([v](a)>((vthresh))&v(b)>((vthresh)),((vdd)),((vss)))"
Questionable use of curly braces in "b§e_abmgate yint 0 v={if(v(a)>{{vthresh}},{{vdd}},{{vss}})}"
    Error: undefined symbol in: "if([v](a)>((vthresh)),((vdd)),((vss)))"
Questionable use of curly braces in "b§e_abmgate yint 0 v={if(v(a)>{{vthresh}},{{vdd}},{{vss}})}"
    Error: undefined symbol in: "if([v](a)>((vthresh)),((vdd)),((vss)))"
Warning: Multiple definitions of model "d_d1" Type: Diode
Warning: Multiple definitions of model "qbreakn1" Type: BJT
Warning: Multiple definitions of model "qbreakn2" Type: BJT
Warning: Multiple definitions of model "pnp1" Type: BJT
Warning: Multiple definitions of model "npn1" Type: BJT
solver = Normal
Maximum thread count: 8
tnom = 27
temp = 27
method = modified trap
d_d1: Emission coefficient, N=0.01, too small, limited to 0.1
Direct Newton iteration for .op point succeeded.
Ignoring empty pin current: Ix(u1:cii)
Ignoring empty pin current: Ix(u1:ipk)
Ignoring empty pin current: Ix(u1:vcc)
Ignoring empty pin current: Ix(u1:cii)
Ignoring empty pin current: Ix(u1:ipk)
Ignoring empty pin current: Ix(u1:vcc)
Total elapsed time: 10.514 seconds.

