Circuit: * C:\Users\corne\OneDrive\Documentos\Diogenes\Facultad\C2\dce-g5-proyecto_integrador\Checkpoint 2\Simulación.asc

Warning: Multiple definitions of model "2scr375p" Type: BJT
Warning: Multiple definitions of model "bc857b" Type: BJT
Warning: Multiple definitions of model "bc847c" Type: BJT
Warning: Multiple definitions of model "bc847b" Type: BJT
Early termination of direct N-R iteration.
Direct Newton iteration failed to find .op point.  (Use ".option noopiter" to skip.)
Starting Gmin stepping
Gmin = 10
vernier = 0.5
vernier = 0.25
vernier = 0.125
vernier = 0.0625
Gmin = 8.61953
vernier = 0.03125
vernier = 0.015625
vernier = 0.0078125
vernier = 0.00390625
Gmin = 8.47038
vernier = 0.00195312
vernier = 0.000976562
vernier = 0.000488281
Gmin = 0
Gmin stepping failed

Starting source stepping with srcstepmethod=0
Source Step = 3.0303%
Source Step = 33.3333%
Source Step = 63.6364%
Source Step = 93.9394%
Source stepping succeeded in finding the operating point.


Date: Mon Sep 23 20:51:17 2024
Total elapsed time: 5.085 seconds.

tnom = 27
temp = 27
method = modified trap
totiter = 144348
traniter = 142685
tranpoints = 33950
accept = 25562
rejected = 8388
matrix size = 164
fillins = 951
solver = Normal
Avg thread counts: 1.0/1.0/1.0/1.0
Matrix Compiler1: 120.14 KB object code size  31.0/22.1/[7.3]
Matrix Compiler2: 29.87 KB object code size  8.3/6.1/[3.2]

