Circuit: * C:\Users\---\Desktop\DCE\dce-g5-proyecto_integrador\Checkpoint 2\Simulación.asc

WARNING: Node N011 is floating.

WARNING: Less than two connections to node N012.  This node is used by L1.
Early termination of direct N-R iteration.
Direct Newton iteration failed to find .op point.  (Use ".option noopiter" to skip.)
Starting Gmin stepping
Gmin = 10
vernier = 0.5
vernier = 0.25
vernier = 0.125
vernier = 0.0625
Gmin = 8.61953
vernier = 0.03125
vernier = 0.015625
vernier = 0.0078125
vernier = 0.00390625
Gmin = 8.47038
vernier = 0.00195313
vernier = 0.000976563
vernier = 0.000488281
Gmin = 0
Gmin stepping failed

Starting source stepping with srcstepmethod=0
Source Step = 3.0303%
Source Step = 33.3333%
Source Step = 63.6364%
Source Step = 93.9394%
Source stepping succeeded in finding the operating point.


Date: Thu Sep 26 23:33:26 2024
Total elapsed time: 3.167 seconds.

tnom = 27
temp = 27
method = modified trap
totiter = 19593
traniter = 17915
tranpoints = 4507
accept = 3473
rejected = 1034
matrix size = 168
fillins = 927
solver = Normal
Thread vector: 17.8/12.0[3] 7.8/5.3[3] 7.8/6.4[3] 1.7/3.3[1]  2592/500
Matrix Compiler1: 126.43 KB object code size  19.9/16.8/[11.0]
Matrix Compiler2: 29.52 KB object code size  11.7/6.3/[3.1]

