Circuit: * C:\Users\coqui\Documents\Facultad\Circuitos II\TP\dce-g5-proyecto_integrador\Checkpoint 2\Simulación.asc

Pulso: both pins shorted together -- ignoring.
Early termination of direct N-R iteration.
Direct Newton iteration failed to find .op point.  (Use ".option noopiter" to skip.)
Starting Gmin stepping
Gmin = 10
vernier = 0.5
vernier = 0.25
vernier = 0.125
vernier = 0.0625
Gmin = 8.61953
vernier = 0.03125
vernier = 0.015625
vernier = 0.0078125
vernier = 0.00390625
Gmin = 8.47038
vernier = 0.00195313
vernier = 0.000976563
vernier = 0.000488281
Gmin = 0
Gmin stepping failed

Starting source stepping with srcstepmethod=0
Source Step = 3.0303%
Source Step = 33.3333%
Source Step = 63.6364%
Source Step = 93.9394%
Source stepping succeeded in finding the operating point.


Date: Wed Sep 25 12:36:09 2024
Total elapsed time: 0.545 seconds.

tnom = 27
temp = 27
method = trap
totiter = 1663
traniter = 0
tranpoints = 0
accept = 0
rejected = 0
matrix size = 165
fillins = 923
solver = Normal
Matrix Compiler1:    6395 opcodes
Matrix Compiler2: 29.32 KB object code size  2.0/1.8/[1.6]

