Circuit: * C:\Users\corne\OneDrive\Documentos\Diogenes\Facultad\C2\dce-g5-proyecto_integrador\Checkpoint 1\Simulación.asc

Warning: Multiple definitions of model "2scr375p" Type: BJT
Warning: Multiple definitions of model "bc857b" Type: BJT
Warning: Multiple definitions of model "bc847c" Type: BJT
Warning: Multiple definitions of model "bc847b" Type: BJT
Per .tran options, skipping operating point for transient analysis.
Changing Tseed to 1e-13
Changing Tseed to 1e-15
Changing Tseed to 1e-12
Changing Tseed to 1e-16
Changing Tseed to 1e-11
Changing Tseed to 1e-17
Changing Tseed to 1e-10
Changing Tseed to 1e-18
Changing Tseed to 1e-09
Changing Tseed to 1e-19
Changing Tseed to 1e-08
Changing Tseed to 1e-20
Heightened Def Con from 0 Changing Tseed to 1e-13
Changing Tseed to 1e-15
Changing Tseed to 1e-12
Changing Tseed to 1e-16
Changing Tseed to 1e-11
Changing Tseed to 1e-17
Changing Tseed to 1e-10
Changing Tseed to 1e-18
Changing Tseed to 1e-09
Changing Tseed to 1e-19
Changing Tseed to 1e-08
Changing Tseed to 1e-20
+Changing Tseed to 1e-13
Changing Tseed to 1e-15
Changing Tseed to 1e-12
Changing Tseed to 1e-16
Changing Tseed to 1e-11
Changing Tseed to 1e-17
Changing Tseed to 1e-10
Changing Tseed to 1e-18
Changing Tseed to 1e-09
Changing Tseed to 1e-19
Changing Tseed to 1e-08
Changing Tseed to 1e-20
+Changing Tseed to 1e-13
Changing Tseed to 1e-15
Changing Tseed to 1e-12
Changing Tseed to 1e-16
Changing Tseed to 1e-11
Changing Tseed to 1e-17
Changing Tseed to 1e-10
Changing Tseed to 1e-18
Changing Tseed to 1e-09
Changing Tseed to 1e-19
Changing Tseed to 1e-08
Changing Tseed to 1e-20
+Changing Tseed to 1e-13
Changing Tseed to 1e-15
Changing Tseed to 1e-12
Changing Tseed to 1e-16
Changing Tseed to 1e-11
Changing Tseed to 1e-17
Changing Tseed to 1e-10
Changing Tseed to 1e-18
Changing Tseed to 1e-09
Changing Tseed to 1e-19
Changing Tseed to 1e-08
Changing Tseed to 1e-20
+Changing Tseed to 1e-13
Changing Tseed to 1e-15
Changing Tseed to 1e-12
Changing Tseed to 1e-16
Changing Tseed to 1e-11
Changing Tseed to 1e-17
Changing Tseed to 1e-10
Changing Tseed to 1e-18
Changing Tseed to 1e-09
Changing Tseed to 1e-19
Changing Tseed to 1e-08
Changing Tseed to 1e-20
+Changing Tseed to 1e-13
Changing Tseed to 1e-15
Changing Tseed to 1e-12
Changing Tseed to 1e-16
Changing Tseed to 1e-11
Changing Tseed to 1e-17
Changing Tseed to 1e-10
Changing Tseed to 1e-18
Changing Tseed to 1e-09
Changing Tseed to 1e-19
Changing Tseed to 1e-08
Changing Tseed to 1e-20
+Changing Tseed to 1e-13
Changing Tseed to 1e-15
Changing Tseed to 1e-12
Changing Tseed to 1e-16
Changing Tseed to 1e-11
Changing Tseed to 1e-17
to 0.005

Date: Mon Sep 23 14:13:21 2024
Total elapsed time: 7.363 seconds.

tnom = 27
temp = 27
method = modified trap
totiter = 3131
traniter = 3131
tranpoints = 1129
accept = 1039
rejected = 7
matrix size = 184
fillins = 1664
solver = Normal
Avg thread counts: 1.4/2.2/2.2/1.4
Matrix Compiler1: 237.81 KB object code size  11.4/6.6/[4.0]
Matrix Compiler2: 43.74 KB object code size  3.7/3.6/[1.9]

