LTspice 24.0.12 for Windows
Circuit: * C:\users\Denise.Viltes\OneDrive - Toyota Argentina S.A\Documentos\dce-g5-proyecto_integrador-main\dce-g5-proyecto_integrador-main\Checkpoint 4\PWM\Ejemplo de modulador triangular en LTSPICE.asc
Start Time: Sat Nov 16 21:37:48 2024
solver = Normal
Maximum thread count: 8
tnom = 27
temp = 27
method = modified trap
Per .tran options, skipping operating point for transient analysis.
Total elapsed time: 0.237 seconds.

