Circuit: * C:\Users\---\Desktop\DCE\dce-g5-proyecto_integrador\Checkpoint 4\PWM\Ejemplo de modulador triangular en LTSPICE.asc

Per .tran options, skipping operating point for transient analysis.

Date: Sat Nov 23 14:56:57 2024
Total elapsed time: 1.638 seconds.

tnom = 27
temp = 27
method = modified trap
totiter = 8569
traniter = 8569
tranpoints = 3223
accept = 2554
rejected = 669
matrix size = 255
fillins = 120
solver = Normal
Thread vector: 122.5/87.9[4] 21.7/38.0[1] 46.2/41.9[2] 2.6/38.5[1]  2592/500
Matrix Compiler1: 13.37 KB object code size  18.0/9.4/[2.2]
Matrix Compiler2: 20.08 KB object code size  11.3/13.8/[3.1]

