Circuit: * C:\Users\---\Desktop\DCE\dce-g5-proyecto_integrador\Checkpoint 4\Simus\PWM-campus\Ejemplo de modulador triangular en LTSPICE.asc

Per .tran options, skipping operating point for transient analysis.

Date: Fri Nov 08 20:42:19 2024
Total elapsed time: 0.930 seconds.

tnom = 27
temp = 27
method = modified trap
totiter = 50157
traniter = 50157
tranpoints = 13344
accept = 9632
rejected = 3712
matrix size = 67
fillins = 130
solver = Normal
Thread vector: 8.1/5.7[2] 3.9/2.4[2] 2.4/1.9[2] 0.3/1.5[1]  2592/500
Matrix Compiler1: 10.88 KB object code size  1.7/2.2/[0.6]
Matrix Compiler2: 8.17 KB object code size  0.6/2.1/[0.4]

