Circuit: * C:\Users\corne\OneDrive\Documentos\Diogenes\Facultad\C2\dce-g5-proyecto_integrador\Checkpoint 4\Simus\PWM-campus\Ejemplo de modulador triangular en LTSPICE.asc

Per .tran options, skipping operating point for transient analysis.

Date: Fri Nov  8 12:16:35 2024
Total elapsed time: 0.961 seconds.

tnom = 27
temp = 27
method = modified trap
totiter = 50203
traniter = 50203
tranpoints = 13274
accept = 9595
rejected = 3679
matrix size = 67
fillins = 130
solver = Normal
Avg thread counts: 1.0/1.1/1.1/1.0
Matrix Compiler1: 10.99 KB object code size  3.0/3.2/[1.5]
Matrix Compiler2: 8.14 KB object code size  1.2/2.1/[0.7]

