Circuit: * C:\Users\coqui\Documents\Facultad\Circuitos II\TP\dce-g5-proyecto_integrador\Checkpoint 4\Simus\PWM-campus\PWM.asc

Per .tran options, skipping operating point for transient analysis.

Date: Thu Nov 14 10:59:56 2024
Total elapsed time: 0.204 seconds.

tnom = 27
temp = 27
method = modified trap
totiter = 14790
traniter = 14790
tranpoints = 4330
accept = 3329
rejected = 1001
matrix size = 77
fillins = 81
solver = Normal
Thread vector: 5.9/3.7[2] 1.7/1.4[2] 0.9/0.8[2] 0.2/0.4[1]  2592/500
Matrix Compiler1: 7.99 KB object code size  1.4/0.4/[0.4]
Matrix Compiler2: 8.47 KB object code size  0.4/0.6/[0.4]

