Circuit: * C:\Users\---\Desktop\DCE\dce-g5-proyecto_integrador\Checkpoint 5\Buck-compensado\boost_average_CL.asc

WARNING: Node IN is floating.

WARNING: Less than two connections to node VDD.  This node is used by E:U1:R.
WARNING: Less than two connections to node IN.  This node is used by E:U1:T.
Direct Newton iteration failed to find .op point.  (Use ".option noopiter" to skip.)
Starting Gmin stepping
Gmin = 10
Gmin = 1.07374
Gmin = 0.115292
Gmin = 0.0123794
Gmin = 0.00132923
vernier = 0.5
vernier = 0.25
vernier = 0.125
vernier = 0.0625
Gmin = 0.00100083
vernier = 0.03125
vernier = 0.015625
vernier = 0.0078125
vernier = 0.00390625
vernier = 0.00195313
Gmin = 0.00100083
vernier = 0.000976563
vernier = 0.000488281
Gmin = 0
Gmin stepping succeeded in finding the operating point.

Ignoring empty pin current: Ix(u1:5)
Ignoring empty pin current: Ix(u1:5)

Date: Wed Dec 04 19:01:17 2024
Total elapsed time: 0.374 seconds.

tnom = 27
temp = 27
method = modified trap
totiter = 25485
traniter = 24053
tranpoints = 12027
accept = 12027
rejected = 0
matrix size = 27
fillins = 16
solver = Normal
Matrix Compiler1: 1.50 KB object code size  0.3/0.2/[0.1]
Matrix Compiler2: off  [0.2]/0.3/0.2

