Circuit: * C:\Users\---\Desktop\DCE\dce-g5-proyecto_integrador\Checkpoint 5\Buck-compensado\buck_average_CL_noCompensado.asc

WARNING: Node N003 is floating.

WARNING: Less than two connections to node N003.  This node is used by L2.
Direct Newton iteration failed to find .op point.  (Use ".option noopiter" to skip.)
Starting Gmin stepping
Increasing initial diagonal Gmin to 100
Increasing initial diagonal Gmin to 1000
Increasing initial diagonal Gmin to 10000
Increasing initial diagonal Gmin to 100000
Increasing initial diagonal Gmin to 1e+006
Initial Gmin=1e+006 failed
Gmin stepping failed

Starting source stepping with srcstepmethod=0
Could not converge to DC with sources off!
Starting source stepping with srcstepmethod=1
Source Step = 3.0303%
Source Step = 11.9318%
vernier = 0.015625
Source Step = 12.2159%
Source Step = 12.6894%
Source Step = 13.1629%
Source Step = 13.6364%
Source Step = 14.1098%
vernier = 0.0234375
Source Step = 14.7964%
Source Step = 15.5066%
Source Step = 16.2169%
Source Step = 16.9271%
Source Step = 17.6373%
vernier = 0.0351563
Source Step = 18.6316%
Source Step = 19.697%
Source Step = 20.7623%
Source Step = 21.8277%
Source Step = 22.893%
vernier = 0.0527344
Source Step = 24.3312%
Source Step = 25.9292%
Source Step = 27.5272%
Source Step = 29.1252%
Source Step = 30.7232%
vernier = 0.0791016
Source Step = 32.8007%
Source Step = 35.1977%
Source Step = 37.5947%
Source Step = 39.9917%
Source Step = 42.3887%
vernier = 0.118652
Source Step = 45.385%
Source Step = 48.9805%
Source Step = 52.5761%
Source Step = 56.1716%
Source Step = 59.7671%
vernier = 0.177979
Source Step = 64.0817%
Source Step = 69.475%
Source Step = 74.8683%
Source Step = 80.2616%
Source Step = 85.6549%
vernier = 0.266968
Source Step = 91.8572%
Source Step = 99.9471%
Source stepping succeeded in finding the operating point.

Ignoring empty pin current: Ix(u1:5)
Ignoring empty pin current: Ix(u1:5)

Date: Thu Dec 05 21:20:49 2024
Total elapsed time: 0.134 seconds.

tnom = 27
temp = 27
method = trap
totiter = 3115
traniter = 0
tranpoints = 0
accept = 0
rejected = 0
matrix size = 25
fillins = 16
solver = Normal
Matrix Compiler1: 1.28 KB object code size  0.5/0.2/[0.2]
Matrix Compiler2: off  [0.1]/0.3/0.2

