LTspice 24.0.12 for Windows
Circuit: * C:\Users\---\Desktop\DCE\dce-g5-proyecto_integrador\Checkpoint 5\Buck-compensado\buck_average_CL_noCompensado.asc
Start Time: Fri Dec  6 14:44:17 2024
solver = Normal
Maximum thread count: 4
tnom = 27
temp = 27
method = modified trap
WARNING: Node N005 is floating.

WARNING: Less than two connections to node n005.  This node is used by l2.
Direct Newton iteration failed to find .op point.  (Use ".option noopiter" to skip.)
Starting Gmin stepping
Increasing initial diagonal Gmin to 100
Singular matrix:  Check nodes u2:n007 and y
   Iteration No. 23
Initial Gmin=100 failed
Gmin stepping failed

Starting source stepping with srcstepmethod=0
Source Step = 3.0303%
Source Step = 33.3333%
Source Step = 63.6364%
Source Step = 93.9394%
Source stepping succeeded in finding the operating point.

Ignoring empty pin current: Ix(u1:5)
Ignoring empty pin current: Ix(u1:5)
Total elapsed time: 1.055 seconds.

