Circuit: * C:\Users\---\Desktop\DCE\dce-g5-proyecto_integrador\Checkpoint 4\Buck\Buck-lazo-abierto.asc

Instance "m:u1:_gd_template:_lo_stage:_lo_nmos": Length shorter than recommended for a level 1 MOSFET.
Instance "m:u1:_gd_template:_lo_stage:_lo_pmos": Length shorter than recommended for a level 1 MOSFET.
Instance "m:u1:_gd_template:_ho_stage:_ho_nmos": Length shorter than recommended for a level 1 MOSFET.
Instance "m:u1:_gd_template:_ho_stage:_ho_pmos": Length shorter than recommended for a level 1 MOSFET.
Per .tran options, skipping operating point for transient analysis.
Changing Tseed to 3.90625e-011
Changing Tseed to 3.90625e-013
Changing Tseed to 3.90625e-010
Changing Tseed to 3.90625e-014
Heightened Def Con from 1.67484e-011 to 1.2e-009
Heightened Def Con from 1.2066e-009 to 7.2066e-009
Heightened Def Con from 1.80489e-008 to 2.10489e-008
Heightened Def Con from 1.36672e-007 to 1.39672e-007
Heightened Def Con from 6.60564e-007 to 6.62564e-007
Heightened Def Con from 6.70926e-007 to 6.7093e-007
Heightened Def Con from 6.7093e-007 to 6.70934e-007
Heightened Def Con from 6.71427e-007 to 6.71433e-007
Heightened Def Con from 6.71453e-007 to 6.71453e-007
Heightened Def Con from 6.71565e-007 to 6.7244e-007
Heightened Def Con from 2.64771e-006 to 2.65571e-006
Heightened Def Con from 2.81079e-006 to 2.81079e-006
Heightened Def Con from 2.8108e-006 to 2.8108e-006
Heightened Def Con from 2.81083e-006 to 2.81084e-006
Heightened Def Con from 2.81095e-006 to 2.81295e-006
Heightened Def Con from 3.31844e-006 to 3.31869e-006
Heightened Def Con from 3.3194e-006 to 3.32066e-006
Heightened Def Con from 3.32067e-006 to 3.32079e-006
Heightened Def Con from 3.32079e-006 to 3.32779e-006
Heightened Def Con from 4.99968e-006 to 5.00768e-006
Heightened Def Con from 5.1357e-006 to 5.1387e-006
Heightened Def Con from 5.15628e-006 to 5.15653e-006
Heightened Def Con from 5.15914e-006 to 5.15976e-006
Heightened Def Con from 5.15999e-006 to 5.16899e-006
Heightened Def Con from 5.67052e-006 to 5.67252e-006
Heightened Def Con from 5.67364e-006 to 5.67365e-006
Heightened Def Con from 5.67371e-006 to 5.67371e-006
Heightened Def Con from 5.67374e-006 to 5.67461e-006
Heightened Def Con from 7.64758e-006 to 7.65558e-006
Heightened Def Con from 7.78337e-006 to 7.78637e-006
Heightened Def Con from 7.80399e-006 to 7.80399e-006
Heightened Def Con from 7.804e-006 to 7.804e-006
Heightened Def Con from 7.80402e-006 to 7.80402e-006
Heightened Def Con from 7.80403e-006 to 7.80404e-006
Heightened Def Con from 7.80404e-006 to 7.80404e-006
Heightened Def Con from 7.80408e-006 to 7.80409e-006
Heightened Def Con from 7.8041e-006 to 7.8041e-006
Heightened Def Con from 7.80414e-006 to 7.80414e-006
Heightened Def Con from 7.80414e-006 to 7.80414e-006
Heightened Def Con from 7.80414e-006 to 7.80414e-006
Heightened Def Con from 7.80415e-006 to 7.80415e-006
Heightened Def Con from 7.80417e-006 to 7.80417e-006
Heightened Def Con from 7.80419e-006 to 7.80419e-006
Heightened Def Con from 7.80423e-006 to 7.80423e-006
Heightened Def Con from 7.80424e-006 to 7.80424e-006
Heightened Def Con from 7.80424e-006 to 7.80425e-006
Heightened Def Con from 7.80425e-006 to 7.80425e-006
Heightened Def Con from 7.80426e-006 to 7.80426e-006
Heightened Def Con from 7.80426e-006 to 7.80426e-006
Heightened Def Con from 7.80426e-006 to 7.80426e-006
Heightened Def Con from 7.80428e-006 to 7.80429e-006
Heightened Def Con from 7.8044e-006 to 7.8044e-006
Heightened Def Con from 7.8044e-006 to 7.8044e-006
Heightened Def Con from 7.80441e-006 to 7.80442e-006
Heightened Def Con from 7.80442e-006 to 7.80442e-006
Heightened Def Con from 7.80442e-006 to 7.80442e-006
Heightened Def Con from 7.80447e-006 to 7.80447e-006
Heightened Def Con from 7.80448e-006 to 7.80448e-006
Heightened Def Con from 7.80453e-006 to 7.80453e-006
Heightened Def Con from 7.80457e-006 to 7.80457e-006
Heightened Def Con from 7.80457e-006 to 7.80457e-006
Heightened Def Con from 7.80458e-006 to 7.80458e-006
Heightened Def Con from 7.80459e-006 to 7.8046e-006
Heightened Def Con from 7.80463e-006 to 7.80463e-006
Heightened Def Con from 7.80463e-006 to 7.80464e-006
Heightened Def Con from 7.80464e-006 to 7.80464e-006
Heightened Def Con from 7.80465e-006 to 7.80465e-006
Heightened Def Con from 7.80465e-006 to 7.80465e-006
Heightened Def Con from 7.80466e-006 to 7.80466e-006
Heightened Def Con from 7.80467e-006 to 7.80468e-006
Heightened Def Con from 7.80468e-006 to 7.80468e-006
Heightened Def Con from 7.8047e-006 to 7.8047e-006
Heightened Def Con from 7.8047e-006 to 7.8047e-006
Heightened Def Con from 7.80475e-006 to 7.80475e-006
Heightened Def Con from 7.80476e-006 to 7.80676e-006
Heightened Def Con from 7.983e-006 to 7.986e-006
Heightened Def Con from 8.31716e-006 to 8.31829e-006
Heightened Def Con from 8.31829e-006 to 8.31843e-006
Heightened Def Con from 8.31853e-006 to 8.32253e-006
Heightened Def Con from 1.00011e-005 to 1.00051e-005
Heightened Def Con from 1.01613e-005 to 1.01613e-005
Heightened Def Con from 1.01622e-005 to 1.01622e-005
Heightened Def Con from 1.0163e-005 to 1.01636e-005
Heightened Def Con from 1.01641e-005 to 1.01731e-005
Heightened Def Con from 1.02688e-005 to 1.02718e-005
Heightened Def Con from 1.06583e-005 to 1.06603e-005
Heightened Def Con from 1.06679e-005 to 1.06699e-005
Heightened Def Con from 1.06699e-005 to 1.06699e-005
Heightened Def Con from 1.06702e-005 to 1.06703e-005
Heightened Def Con from 1.06703e-005 to 1.06703e-005
Heightened Def Con from 1.06703e-005 to 1.06703e-005
Heightened Def Con from 1.06704e-005 to 1.06713e-005
Heightened Def Con from 1.26477e-005 to 1.26557e-005
Heightened Def Con from 1.28053e-005 to 1.28053e-005
Heightened Def Con from 1.28053e-005 to 1.28053e-005
Heightened Def Con from 1.28054e-005 to 1.28054e-005
Heightened Def Con from 1.28054e-005 to 1.28054e-005
Heightened Def Con from 1.28054e-005 to 1.28054e-005
Heightened Def Con from 1.28055e-005 to 1.28055e-005
Heightened Def Con from 1.28055e-005 to 1.28055e-005
Heightened Def Con from 1.28055e-005 to 1.28055e-005
Heightened Def Con from 1.28055e-005 to 1.28055e-005
Heightened Def Con from 1.28055e-005 to 1.28055e-005
Heightened Def Con from 1.28055e-005 to 1.28055e-005
Heightened Def Con from 1.28055e-005 to 1.28055e-005
Heightened Def Con from 1.28055e-005 to 1.28055e-005
Heightened Def Con from 1.28056e-005 to 1.28056e-005
Heightened Def Con from 1.28056e-005 to 1.28056e-005
Heightened Def Con from 1.28056e-005 to 1.28056e-005
Heightened Def Con from 1.28056e-005 to 1.28056e-005
Heightened Def Con from 1.28057e-005 to 1.28057e-005
Heightened Def Con from 1.28057e-005 to 1.28057e-005
Heightened Def Con from 1.28057e-005 to 1.28057e-005
Heightened Def Con from 1.28057e-005 to 1.28077e-005
Heightened Def Con from 1.28515e-005 to 1.28545e-005
Heightened Def Con from 1.29187e-005 to 1.29217e-005
Heightened Def Con from 1.3119e-005 to 1.3122e-005
Heightened Def Con from 1.33191e-005 to 1.33194e-005
Heightened Def Con from 1.33194e-005 to 1.33207e-005
Heightened Def Con from 1.33208e-005 to 1.33217e-005
Heightened Def Con from 1.5001e-005 to 1.5006e-005
Heightened Def Con from 1.51499e-005 to 1.515e-005
Heightened Def Con from 1.51501e-005 to 1.51501e-005
Heightened Def Con from 1.51501e-005 to 1.51502e-005
Heightened Def Con from 1.51511e-005 to 1.51517e-005
Heightened Def Con from 1.56671e-005 to 1.56671e-005
Heightened Def Con from 1.56672e-005 to 1.56672e-005
Heightened Def Con from 1.56681e-005 to 1.56681e-005
Heightened Def Con from 1.56681e-005 to 1.56681e-005
Heightened Def Con from 1.56681e-005 to 1.5669e-005
Heightened Def Con from 1.76476e-005 to 1.76556e-005
Heightened Def Con from 1.77834e-005 to 1.77864e-005
Heightened Def Con from 1.7804e-005 to 1.7804e-005
Heightened Def Con from 1.7804e-005 to 1.7804e-005
Heightened Def Con from 1.7804e-005 to 1.7804e-005
Heightened Def Con from 1.78041e-005 to 1.78041e-005
Heightened Def Con from 1.78041e-005 to 1.78041e-005
Heightened Def Con from 1.78041e-005 to 1.78041e-005
Heightened Def Con from 1.78041e-005 to 1.78041e-005
Heightened Def Con from 1.78041e-005 to 1.78041e-005
Heightened Def Con from 1.78042e-005 to 1.78042e-005
Heightened Def Con from 1.78043e-005 to 1.78043e-005
Heightened Def Con from 1.78043e-005 to 1.78043e-005
Heightened Def Con from 1.78043e-005 to 1.78043e-005
Heightened Def Con from 1.78043e-005 to 1.78043e-005
Heightened Def Con from 1.78043e-005 to 1.78043e-005
Heightened Def Con from 1.78044e-005 to 1.78044e-005
Heightened Def Con from 1.78045e-005 to 1.78045e-005
Heightened Def Con from 1.78045e-005 to 1.78045e-005
Heightened Def Con from 1.78046e-005 to 1.78046e-005
Heightened Def Con from 1.78046e-005 to 1.78046e-005
Heightened Def Con from 1.78046e-005 to 1.78046e-005
Heightened Def Con from 1.78046e-005 to 1.78046e-005
Heightened Def Con from 1.78046e-005 to 1.78046e-005
Heightened Def Con from 1.78047e-005 to 1.78047e-005
Heightened Def Con from 1.78047e-005 to 1.78047e-005
Heightened Def Con from 1.78047e-005 to 1.78047e-005
Heightened Def Con from 1.78047e-005 to 1.78047e-005
Heightened Def Con from 1.78047e-005 to 1.78047e-005
Heightened Def Con from 1.78048e-005 to 1.78048e-005
Heightened Def Con from 1.78048e-005 to 1.78048e-005
Heightened Def Con from 1.78048e-005 to 1.78048e-005
Heightened Def Con from 1.78048e-005 to 1.78051e-005
Heightened Def Con from 1.78051e-005 to 1.78131e-005
Heightened Def Con from 1.79178e-005 to 1.79208e-005
Heightened Def Con from 1.83068e-005 to 1.83088e-005
Heightened Def Con from 1.832e-005 to 1.832e-005
Heightened Def Con from 1.832e-005 to 1.83201e-005
Heightened Def Con from 1.83202e-005 to 1.83202e-005
Heightened Def Con from 1.83203e-005 to 1.83203e-005
Heightened Def Con from 1.83203e-005 to 1.83204e-005
Heightened Def Con from 1.83204e-005 to 1.83205e-005
Heightened Def Con from 1.83206e-005 to 1.83207e-005
Heightened Def Con from 1.83208e-005 to 1.83209e-005
Heightened Def Con from 1.8321e-005 to 1.83211e-005
Heightened Def Con from 1.83211e-005 to 1.83211e-005
Heightened Def Con from 1.83212e-005 to 1.83212e-005
Heightened Def Con from 1.83213e-005 to 1.83213e-005
Heightened Def Con from 1.83215e-005 to 1.83215e-005
Heightened Def Con from 1.83215e-005 to 1.83215e-005
Heightened Def Con from 1.83217e-005 to 1.83225e-005
Heightened Def Con from 2.00005e-005 to 2.00075e-005
Heightened Def Con from 2.01492e-005 to 2.01492e-005
Heightened Def Con from 2.01513e-005 to 2.01519e-005
Heightened Def Con from 2.02698e-005 to 2.02728e-005
Heightened Def Con from 2.0671e-005 to 2.0671e-005
Heightened Def Con from 2.0671e-005 to 2.0671e-005
Heightened Def Con from 2.06711e-005 to 2.06711e-005
Heightened Def Con from 2.06712e-005 to 2.06721e-005
Heightened Def Con from 2.26476e-005 to 2.26556e-005
Heightened Def Con from 2.27835e-005 to 2.27865e-005
Heightened Def Con from 2.28041e-005 to 2.28041e-005
Heightened Def Con from 2.28041e-005 to 2.28041e-005
Heightened Def Con from 2.28041e-005 to 2.28041e-005
Heightened Def Con from 2.28041e-005 to 2.28041e-005
Heightened Def Con from 2.28042e-005 to 2.28042e-005
Heightened Def Con from 2.28042e-005 to 2.28042e-005
Heightened Def Con from 2.28042e-005 to 2.28042e-005
Heightened Def Con from 2.28042e-005 to 2.28042e-005
Heightened Def Con from 2.28042e-005 to 2.28042e-005
Heightened Def Con from 2.28042e-005 to 2.28042e-005
Heightened Def Con from 2.28047e-005 to 2.28047e-005
Heightened Def Con from 2.28047e-005 to 2.28047e-005
Heightened Def Con from 2.28047e-005 to 2.28047e-005
Heightened Def Con from 2.28047e-005 to 2.28047e-005
Heightened Def Con from 2.28047e-005 to 2.28047e-005
Heightened Def Con from 2.28048e-005 to 2.28048e-005
Heightened Def Con from 2.28048e-005 to 2.28048e-005
Heightened Def Con from 2.28048e-005 to 2.28048e-005
Heightened Def Con from 2.28048e-005 to 2.28048e-005
Heightened Def Con from 2.28048e-005 to 2.28048e-005
Heightened Def Con from 2.28048e-005 to 2.28048e-005
Heightened Def Con from 2.28048e-005 to 2.28049e-005
Heightened Def Con from 2.28049e-005 to 2.28049e-005
Heightened Def Con from 2.28049e-005 to 2.28069e-005
Heightened Def Con from 2.33195e-005 to 2.3321e-005
Heightened Def Con from 2.33211e-005 to 2.3322e-005
Heightened Def Con from 2.51498e-005 to 2.51498e-005
Heightened Def Con from 2.51509e-005 to 2.51509e-005
Heightened Def Con from 2.5151e-005 to 2.51516e-005
Heightened Def Con from 2.51529e-005 to 2.51599e-005
Heightened Def Con from 2.56548e-005 to 2.56568e-005
Heightened Def Con from 2.56644e-005 to 2.56664e-005
Heightened Def Con from 2.56676e-005 to 2.56696e-005
Heightened Def Con from 2.56696e-005 to 2.56696e-005
Heightened Def Con from 2.56696e-005 to 2.56696e-005
Heightened Def Con from 2.56697e-005 to 2.56697e-005
Heightened Def Con from 2.56697e-005 to 2.56706e-005
Heightened Def Con from 2.76477e-005 to 2.76557e-005
Heightened Def Con from 2.78001e-005 to 2.78041e-005
Heightened Def Con from 2.78042e-005 to 2.78042e-005
Heightened Def Con from 2.78042e-005 to 2.78042e-005
Heightened Def Con from 2.78042e-005 to 2.78042e-005
Heightened Def Con from 2.78042e-005 to 2.78042e-005
Heightened Def Con from 2.78042e-005 to 2.78042e-005
Heightened Def Con from 2.78043e-005 to 2.78043e-005
Heightened Def Con from 2.78043e-005 to 2.78043e-005
Heightened Def Con from 2.78043e-005 to 2.78043e-005
Heightened Def Con from 2.78043e-005 to 2.78063e-005
Heightened Def Con from 2.79187e-005 to 2.79217e-005
Heightened Def Con from 2.83163e-005 to 2.83183e-005
Heightened Def Con from 2.83213e-005 to 2.83225e-005
Heightened Def Con from 2.83226e-005 to 2.83235e-005
Heightened Def Con from 3.0001e-005 to 3.0006e-005
Heightened Def Con from 3.01554e-005 to 3.01557e-005
Heightened Def Con from 3.0156e-005 to 3.01561e-005
Heightened Def Con from 3.01578e-005 to 3.01585e-005
Heightened Def Con from 3.01605e-005 to 3.01655e-005
Heightened Def Con from 3.06033e-005 to 3.06063e-005
Heightened Def Con from 3.06656e-005 to 3.06686e-005
Heightened Def Con from 3.06687e-005 to 3.06697e-005
Heightened Def Con from 3.06697e-005 to 3.06697e-005
Heightened Def Con from 3.067e-005 to 3.067e-005
Heightened Def Con from 3.067e-005 to 3.067e-005
Heightened Def Con from 3.06701e-005 to 3.06701e-005
Heightened Def Con from 3.06701e-005 to 3.0671e-005
Heightened Def Con from 3.26476e-005 to 3.26556e-005
Heightened Def Con from 3.27833e-005 to 3.27863e-005
Heightened Def Con from 3.2804e-005 to 3.2804e-005
Heightened Def Con from 3.2804e-005 to 3.2804e-005
Heightened Def Con from 3.2804e-005 to 3.2804e-005
Heightened Def Con from 3.2804e-005 to 3.2804e-005
Heightened Def Con from 3.2804e-005 to 3.28041e-005
Heightened Def Con from 3.28041e-005 to 3.28041e-005
Heightened Def Con from 3.28041e-005 to 3.28041e-005
Heightened Def Con from 3.28041e-005 to 3.28041e-005
Heightened Def Con from 3.28041e-005 to 3.28041e-005
Heightened Def Con from 3.28041e-005 to 3.28041e-005
Heightened Def Con from 3.28041e-005 to 3.28041e-005
Heightened Def Con from 3.28041e-005 to 3.28041e-005
Heightened Def Con from 3.28046e-005 to 3.28046e-005
Heightened Def Con from 3.28046e-005 to 3.28046e-005
Heightened Def Con from 3.28046e-005 to 3.28046e-005
Heightened Def Con from 3.28046e-005 to 3.28046e-005
Heightened Def Con from 3.28047e-005 to 3.2805e-005
Heightened Def Con from 3.2805e-005 to 3.2813e-005
Heightened Def Con from 3.33194e-005 to 3.33205e-005
Heightened Def Con from 3.33213e-005 to 3.33225e-005
Heightened Def Con from 3.33225e-005 to 3.33234e-005
Heightened Def Con from 3.50005e-005 to 3.50075e-005
Heightened Def Con from 3.51421e-005 to 3.51451e-005
Heightened Def Con from 3.51487e-005 to 3.51487e-005
Heightened Def Con from 3.51501e-005 to 3.51501e-005
Heightened Def Con from 3.51501e-005 to 3.51501e-005
Heightened Def Con from 3.51501e-005 to 3.51501e-005
Heightened Def Con from 3.51506e-005 to 3.51512e-005
Heightened Def Con from 3.52697e-005 to 3.52727e-005
Heightened Def Con from 3.56719e-005 to 3.56719e-005
Heightened Def Con from 3.56719e-005 to 3.56728e-005
Heightened Def Con from 3.76317e-005 to 3.76337e-005
Heightened Def Con from 3.76477e-005 to 3.76557e-005
Heightened Def Con from 3.7805e-005 to 3.7805e-005
Heightened Def Con from 3.7805e-005 to 3.7805e-005
Heightened Def Con from 3.7805e-005 to 3.7805e-005
Heightened Def Con from 3.78051e-005 to 3.78051e-005
Heightened Def Con from 3.78051e-005 to 3.78051e-005
Heightened Def Con from 3.78051e-005 to 3.78051e-005
Heightened Def Con from 3.78051e-005 to 3.78052e-005
Heightened Def Con from 3.78052e-005 to 3.78052e-005
Heightened Def Con from 3.78052e-005 to 3.78052e-005
Heightened Def Con from 3.78052e-005 to 3.78052e-005
Heightened Def Con from 3.78052e-005 to 3.78052e-005
Heightened Def Con from 3.78052e-005 to 3.78052e-005
Heightened Def Con from 3.78052e-005 to 3.78052e-005
Heightened Def Con from 3.78052e-005 to 3.78052e-005
Heightened Def Con from 3.78053e-005 to 3.78055e-005
Heightened Def Con from 3.78055e-005 to 3.78135e-005
Heightened Def Con from 3.8187e-005 to 3.819e-005
Heightened Def Con from 3.8306e-005 to 3.8309e-005
Heightened Def Con from 3.83152e-005 to 3.83182e-005
Heightened Def Con from 3.83203e-005 to 3.83217e-005
Heightened Def Con from 3.83217e-005 to 3.83219e-005
Heightened Def Con from 4.00004e-005 to 4.00074e-005
Heightened Def Con from 4.01568e-005 to 4.01581e-005
Heightened Def Con from 4.01581e-005 to 4.01584e-005
Heightened Def Con from 4.05379e-005 to 4.05409e-005
Heightened Def Con from 4.06714e-005 to 4.06714e-005
Heightened Def Con from 4.06715e-005 to 4.06724e-005
Heightened Def Con from 4.09566e-005 to 4.09596e-005
Heightened Def Con from 4.26476e-005 to 4.26556e-005
Heightened Def Con from 4.27833e-005 to 4.27863e-005
Heightened Def Con from 4.28041e-005 to 4.28041e-005
Heightened Def Con from 4.28041e-005 to 4.28041e-005
Heightened Def Con from 4.28042e-005 to 4.28042e-005
Heightened Def Con from 4.28043e-005 to 4.28043e-005
Heightened Def Con from 4.28043e-005 to 4.28043e-005
Heightened Def Con from 4.28043e-005 to 4.28043e-005
Heightened Def Con from 4.28043e-005 to 4.28043e-005
Heightened Def Con from 4.28043e-005 to 4.28043e-005
Heightened Def Con from 4.28043e-005 to 4.28043e-005
Heightened Def Con from 4.28044e-005 to 4.28044e-005
Heightened Def Con from 4.28044e-005 to 4.28044e-005
Heightened Def Con from 4.28044e-005 to 4.28044e-005
Heightened Def Con from 4.28044e-005 to 4.28044e-005
Heightened Def Con from 4.28044e-005 to 4.28044e-005
Heightened Def Con from 4.28044e-005 to 4.28044e-005
Heightened Def Con from 4.28044e-005 to 4.28044e-005
Heightened Def Con from 4.28044e-005 to 4.28044e-005
Heightened Def Con from 4.28045e-005 to 4.28045e-005
Heightened Def Con from 4.28045e-005 to 4.28045e-005
Heightened Def Con from 4.28045e-005 to 4.28045e-005
Heightened Def Con from 4.28045e-005 to 4.28045e-005
Heightened Def Con from 4.28046e-005 to 4.28046e-005
Heightened Def Con from 4.28046e-005 to 4.28046e-005
Heightened Def Con from 4.28046e-005 to 4.28046e-005
Heightened Def Con from 4.28046e-005 to 4.28046e-005
Heightened Def Con from 4.28046e-005 to 4.28046e-005
Heightened Def Con from 4.28046e-005 to 4.28046e-005
Heightened Def Con from 4.28047e-005 to 4.28047e-005
Heightened Def Con from 4.28047e-005 to 4.28047e-005
Heightened Def Con from 4.28048e-005 to 4.28049e-005
Heightened Def Con from 4.28049e-005 to 4.28129e-005
Heightened Def Con from 4.31855e-005 to 4.31885e-005
Heightened Def Con from 4.33045e-005 to 4.33065e-005
Heightened Def Con from 4.33141e-005 to 4.33161e-005
Heightened Def Con from 4.3319e-005 to 4.33202e-005
Heightened Def Con from 4.33202e-005 to 4.33204e-005
Heightened Def Con from 4.33205e-005 to 4.33245e-005
Heightened Def Con from 4.49987e-005 to 4.50077e-005
Heightened Def Con from 4.51356e-005 to 4.51386e-005
Heightened Def Con from 4.51567e-005 to 4.51569e-005
Heightened Def Con from 4.51576e-005 to 4.51576e-005
Heightened Def Con from 4.5159e-005 to 4.51597e-005
Heightened Def Con from 4.56706e-005 to 4.56726e-005
Heightened Def Con from 4.56726e-005 to 4.56726e-005
Heightened Def Con from 4.56726e-005 to 4.56726e-005
Heightened Def Con from 4.56727e-005 to 4.56727e-005
Heightened Def Con from 4.56727e-005 to 4.56727e-005
Heightened Def Con from 4.56731e-005 to 4.56731e-005
Heightened Def Con from 4.56731e-005 to 4.56731e-005
Heightened Def Con from 4.56731e-005 to 4.56731e-005
Heightened Def Con from 4.56732e-005 to 4.56741e-005
Heightened Def Con from 4.76464e-005 to 4.76554e-005
Heightened Def Con from 4.77833e-005 to 4.77863e-005
Heightened Def Con from 4.78039e-005 to 4.78039e-005
Heightened Def Con from 4.78039e-005 to 4.78039e-005
Heightened Def Con from 4.78039e-005 to 4.78039e-005
Heightened Def Con from 4.78039e-005 to 4.78039e-005
Heightened Def Con from 4.78039e-005 to 4.7804e-005
Heightened Def Con from 4.7804e-005 to 4.7804e-005
Heightened Def Con from 4.7804e-005 to 4.7804e-005
Heightened Def Con from 4.7804e-005 to 4.7804e-005
Heightened Def Con from 4.7804e-005 to 4.7804e-005
Heightened Def Con from 4.7804e-005 to 4.7804e-005
Heightened Def Con from 4.78041e-005 to 4.78041e-005
Heightened Def Con from 4.78041e-005 to 4.78041e-005
Heightened Def Con from 4.78041e-005 to 4.78041e-005
Heightened Def Con from 4.78041e-005 to 4.78041e-005
Heightened Def Con from 4.78041e-005 to 4.78041e-005
Heightened Def Con from 4.78041e-005 to 4.78041e-005
Heightened Def Con from 4.78041e-005 to 4.78041e-005
Heightened Def Con from 4.78041e-005 to 4.78041e-005
Heightened Def Con from 4.78041e-005 to 4.78041e-005
Heightened Def Con from 4.78041e-005 to 4.78041e-005
Heightened Def Con from 4.78041e-005 to 4.78041e-005
Heightened Def Con from 4.78042e-005 to 4.78042e-005
Heightened Def Con from 4.78042e-005 to 4.78042e-005
Heightened Def Con from 4.78042e-005 to 4.78042e-005
Heightened Def Con from 4.78042e-005 to 4.78042e-005
Heightened Def Con from 4.78042e-005 to 4.78042e-005
Heightened Def Con from 4.78042e-005 to 4.78042e-005
Heightened Def Con from 4.78042e-005 to 4.78042e-005
Heightened Def Con from 4.78042e-005 to 4.78042e-005
Heightened Def Con from 4.78045e-005 to 4.78045e-005
Heightened Def Con from 4.78045e-005 to 4.78045e-005
Heightened Def Con from 4.78045e-005 to 4.78045e-005
Heightened Def Con from 4.78045e-005 to 4.78045e-005
Heightened Def Con from 4.78045e-005 to 4.78045e-005
Heightened Def Con from 4.78045e-005 to 4.78045e-005
Heightened Def Con from 4.78045e-005 to 4.78045e-005
Heightened Def Con from 4.78045e-005 to 4.78045e-005
Heightened Def Con from 4.78045e-005 to 4.78045e-005
Heightened Def Con from 4.78045e-005 to 4.78045e-005
Heightened Def Con from 4.78046e-005 to 4.78046e-005
Heightened Def Con from 4.78046e-005 to 4.78046e-005
Heightened Def Con from 4.78046e-005 to 4.78046e-005
Heightened Def Con from 4.78046e-005 to 4.78046e-005
Heightened Def Con from 4.78046e-005 to 4.78046e-005
Heightened Def Con from 4.78046e-005 to 4.78046e-005
Heightened Def Con from 4.78046e-005 to 4.78046e-005
Heightened Def Con from 4.78046e-005 to 4.78046e-005
Heightened Def Con from 4.78046e-005 to 4.78046e-005
Heightened Def Con from 4.78046e-005 to 4.78046e-005
Heightened Def Con from 4.78046e-005 to 4.78046e-005
Heightened Def Con from 4.78047e-005 to 4.78048e-005
Heightened Def Con from 4.78049e-005 to 4.78119e-005
Heightened Def Con from 4.79172e-005 to 4.79202e-005
Heightened Def Con from 4.82518e-005 to 4.82548e-005
Heightened Def Con from 4.83038e-005 to 4.83058e-005
Heightened Def Con from 4.83134e-005 to 4.83154e-005
Heightened Def Con from 4.83184e-005 to 4.83198e-005
Heightened Def Con from 4.83198e-005 to 4.83199e-005
Heightened Def Con from 4.83199e-005 to 4.83249e-005
Heightened Def Con from 5.0001e-005 to 5.0006e-005
Heightened Def Con from 5.01544e-005 to 5.01546e-005
Heightened Def Con from 5.01557e-005 to 5.01558e-005
Heightened Def Con from 5.01558e-005 to 5.01558e-005
Heightened Def Con from 5.01558e-005 to 5.01559e-005
Heightened Def Con from 5.01567e-005 to 5.01567e-005
Heightened Def Con from 5.01568e-005 to 5.01569e-005
Heightened Def Con from 5.01572e-005 to 5.01578e-005
Heightened Def Con from 5.06692e-005 to 5.06692e-005
Heightened Def Con from 5.06698e-005 to 5.06698e-005
Heightened Def Con from 5.06699e-005 to 5.06699e-005
Heightened Def Con from 5.06699e-005 to 5.06708e-005
Heightened Def Con from 5.26428e-005 to 5.26448e-005
Heightened Def Con from 5.26448e-005 to 5.26548e-005
Heightened Def Con from 5.27826e-005 to 5.27856e-005
Heightened Def Con from 5.28032e-005 to 5.28032e-005
Heightened Def Con from 5.28032e-005 to 5.28032e-005
Heightened Def Con from 5.28032e-005 to 5.28032e-005
Heightened Def Con from 5.28032e-005 to 5.28032e-005
Heightened Def Con from 5.28032e-005 to 5.28032e-005
Heightened Def Con from 5.28032e-005 to 5.28032e-005
Heightened Def Con from 5.28033e-005 to 5.28033e-005
Heightened Def Con from 5.28033e-005 to 5.28033e-005
Heightened Def Con from 5.28039e-005 to 5.28039e-005
Heightened Def Con from 5.28039e-005 to 5.28039e-005
Heightened Def Con from 5.28039e-005 to 5.28039e-005
Heightened Def Con from 5.28039e-005 to 5.28039e-005
Heightened Def Con from 5.2804e-005 to 5.2804e-005
Heightened Def Con from 5.2804e-005 to 5.28041e-005
Heightened Def Con from 5.28041e-005 to 5.28121e-005
Heightened Def Con from 5.32971e-005 to 5.32991e-005
Heightened Def Con from 5.33153e-005 to 5.33156e-005
Heightened Def Con from 5.3316e-005 to 5.33172e-005
Heightened Def Con from 5.33173e-005 to 5.33175e-005
Heightened Def Con from 5.33176e-005 to 5.33216e-005
Heightened Def Con from 5.50006e-005 to 5.50066e-005
Heightened Def Con from 5.5154e-005 to 5.51543e-005
Heightened Def Con from 5.51561e-005 to 5.51561e-005
Heightened Def Con from 5.51564e-005 to 5.51564e-005
Heightened Def Con from 5.51567e-005 to 5.51573e-005
Heightened Def Con from 5.5672e-005 to 5.5672e-005
Heightened Def Con from 5.56726e-005 to 5.56726e-005
Heightened Def Con from 5.56727e-005 to 5.56736e-005
Heightened Def Con from 5.75872e-005 to 5.75892e-005
Heightened Def Con from 5.76233e-005 to 5.76253e-005
Heightened Def Con from 5.76475e-005 to 5.76555e-005
Heightened Def Con from 5.77835e-005 to 5.77865e-005
Heightened Def Con from 5.78041e-005 to 5.78041e-005
Heightened Def Con from 5.78041e-005 to 5.78041e-005
Heightened Def Con from 5.78041e-005 to 5.78041e-005
Heightened Def Con from 5.78041e-005 to 5.78041e-005
Heightened Def Con from 5.78042e-005 to 5.78042e-005
Heightened Def Con from 5.78042e-005 to 5.78042e-005
Heightened Def Con from 5.78042e-005 to 5.78042e-005
Heightened Def Con from 5.78042e-005 to 5.78042e-005
Heightened Def Con from 5.78042e-005 to 5.78042e-005
Heightened Def Con from 5.78042e-005 to 5.78043e-005
Heightened Def Con from 5.78043e-005 to 5.78043e-005
Heightened Def Con from 5.78043e-005 to 5.78043e-005
Heightened Def Con from 5.78043e-005 to 5.78043e-005
Heightened Def Con from 5.78044e-005 to 5.78044e-005
Heightened Def Con from 5.78044e-005 to 5.78044e-005
Heightened Def Con from 5.78044e-005 to 5.78044e-005
Heightened Def Con from 5.78044e-005 to 5.78044e-005
Heightened Def Con from 5.78044e-005 to 5.78044e-005
Heightened Def Con from 5.78045e-005 to 5.78045e-005
Heightened Def Con from 5.78045e-005 to 5.78045e-005
Heightened Def Con from 5.78045e-005 to 5.78045e-005
Heightened Def Con from 5.78046e-005 to 5.78046e-005
Heightened Def Con from 5.78046e-005 to 5.78046e-005
Heightened Def Con from 5.78046e-005 to 5.78046e-005
Heightened Def Con from 5.78046e-005 to 5.78046e-005
Heightened Def Con from 5.78046e-005 to 5.78046e-005
Heightened Def Con from 5.78047e-005 to 5.78047e-005
Heightened Def Con from 5.78047e-005 to 5.78047e-005
Heightened Def Con from 5.78047e-005 to 5.78047e-005
Heightened Def Con from 5.78047e-005 to 5.78047e-005
Heightened Def Con from 5.78047e-005 to 5.78047e-005
Heightened Def Con from 5.78048e-005 to 5.78048e-005
Heightened Def Con from 5.78048e-005 to 5.78048e-005
Heightened Def Con from 5.78048e-005 to 5.78048e-005
Heightened Def Con from 5.78048e-005 to 5.78048e-005
Heightened Def Con from 5.78048e-005 to 5.78048e-005
Heightened Def Con from 5.78048e-005 to 5.78048e-005
Heightened Def Con from 5.78048e-005 to 5.78068e-005
Heightened Def Con from 5.79157e-005 to 5.79187e-005
Heightened Def Con from 5.82987e-005 to 5.83007e-005
Heightened Def Con from 5.83083e-005 to 5.83103e-005
Heightened Def Con from 5.83136e-005 to 5.83138e-005
Heightened Def Con from 5.83143e-005 to 5.83156e-005
Heightened Def Con from 5.83156e-005 to 5.83165e-005
Heightened Def Con from 6.0001e-005 to 6.0006e-005
Heightened Def Con from 6.01504e-005 to 6.01534e-005
Heightened Def Con from 6.0155e-005 to 6.0155e-005
Heightened Def Con from 6.01556e-005 to 6.01556e-005
Heightened Def Con from 6.01566e-005 to 6.01573e-005
Heightened Def Con from 6.02696e-005 to 6.02726e-005
Heightened Def Con from 6.06652e-005 to 6.06672e-005
Heightened Def Con from 6.06683e-005 to 6.06703e-005
Heightened Def Con from 6.06703e-005 to 6.06703e-005
Heightened Def Con from 6.06704e-005 to 6.06704e-005
Heightened Def Con from 6.06704e-005 to 6.06713e-005
Heightened Def Con from 6.26458e-005 to 6.26548e-005
Heightened Def Con from 6.27827e-005 to 6.27857e-005
Heightened Def Con from 6.28033e-005 to 6.28033e-005
Heightened Def Con from 6.28033e-005 to 6.28033e-005
Heightened Def Con from 6.28033e-005 to 6.28033e-005
Heightened Def Con from 6.28033e-005 to 6.28033e-005
Heightened Def Con from 6.28033e-005 to 6.28033e-005
Heightened Def Con from 6.28033e-005 to 6.28033e-005
Heightened Def Con from 6.28034e-005 to 6.28034e-005
Heightened Def Con from 6.28034e-005 to 6.28034e-005
Heightened Def Con from 6.28035e-005 to 6.28035e-005
Heightened Def Con from 6.28035e-005 to 6.28035e-005
Heightened Def Con from 6.28035e-005 to 6.28035e-005
Heightened Def Con from 6.28035e-005 to 6.28035e-005
Heightened Def Con from 6.28035e-005 to 6.28035e-005
Heightened Def Con from 6.28035e-005 to 6.28035e-005
Heightened Def Con from 6.28036e-005 to 6.28036e-005
Heightened Def Con from 6.28036e-005 to 6.28036e-005
Heightened Def Con from 6.28036e-005 to 6.28036e-005
Heightened Def Con from 6.28036e-005 to 6.28036e-005
Heightened Def Con from 6.28037e-005 to 6.28037e-005
Heightened Def Con from 6.28037e-005 to 6.28037e-005
Heightened Def Con from 6.28038e-005 to 6.28038e-005
Heightened Def Con from 6.28038e-005 to 6.28038e-005
Heightened Def Con from 6.28038e-005 to 6.28038e-005
Heightened Def Con from 6.28038e-005 to 6.28038e-005
Heightened Def Con from 6.28038e-005 to 6.28038e-005
Heightened Def Con from 6.28039e-005 to 6.28039e-005
Heightened Def Con from 6.28039e-005 to 6.28039e-005
Heightened Def Con from 6.28039e-005 to 6.28039e-005
Heightened Def Con from 6.2804e-005 to 6.2804e-005
Heightened Def Con from 6.2804e-005 to 6.2804e-005
Heightened Def Con from 6.2804e-005 to 6.2804e-005
Heightened Def Con from 6.2804e-005 to 6.2804e-005
Heightened Def Con from 6.2804e-005 to 6.2804e-005
Heightened Def Con from 6.2804e-005 to 6.2804e-005
Heightened Def Con from 6.28041e-005 to 6.28041e-005
Heightened Def Con from 6.28041e-005 to 6.28061e-005
Heightened Def Con from 6.29149e-005 to 6.29179e-005
Heightened Def Con from 6.32468e-005 to 6.32498e-005
Heightened Def Con from 6.33088e-005 to 6.33108e-005
Heightened Def Con from 6.33137e-005 to 6.33149e-005
Heightened Def Con from 6.33149e-005 to 6.33158e-005
Heightened Def Con from 6.5001e-005 to 6.5006e-005
Heightened Def Con from 6.51571e-005 to 6.51577e-005
Heightened Def Con from 6.51577e-005 to 6.51677e-005
Heightened Def Con from 6.56727e-005 to 6.56727e-005
Heightened Def Con from 6.56727e-005 to 6.56727e-005
Heightened Def Con from 6.56727e-005 to 6.56727e-005
Heightened Def Con from 6.56728e-005 to 6.56737e-005
Heightened Def Con from 6.76466e-005 to 6.76556e-005
Heightened Def Con from 6.77835e-005 to 6.77865e-005
Heightened Def Con from 6.78041e-005 to 6.78041e-005
Heightened Def Con from 6.78042e-005 to 6.78042e-005
Heightened Def Con from 6.78042e-005 to 6.78042e-005
Heightened Def Con from 6.78042e-005 to 6.78042e-005
Heightened Def Con from 6.78042e-005 to 6.78042e-005
Heightened Def Con from 6.78043e-005 to 6.78043e-005
Heightened Def Con from 6.78044e-005 to 6.78044e-005
Heightened Def Con from 6.78044e-005 to 6.78044e-005
Heightened Def Con from 6.78044e-005 to 6.78044e-005
Heightened Def Con from 6.78044e-005 to 6.78044e-005
Heightened Def Con from 6.78044e-005 to 6.78044e-005
Heightened Def Con from 6.78044e-005 to 6.78044e-005
Heightened Def Con from 6.78044e-005 to 6.78044e-005
Heightened Def Con from 6.78044e-005 to 6.78044e-005
Heightened Def Con from 6.78045e-005 to 6.78045e-005
Heightened Def Con from 6.78045e-005 to 6.78045e-005
Heightened Def Con from 6.78045e-005 to 6.78045e-005
Heightened Def Con from 6.78045e-005 to 6.78045e-005
Heightened Def Con from 6.78045e-005 to 6.78045e-005
Heightened Def Con from 6.78045e-005 to 6.78045e-005
Heightened Def Con from 6.78045e-005 to 6.78045e-005
Heightened Def Con from 6.78045e-005 to 6.78045e-005
Heightened Def Con from 6.78045e-005 to 6.78045e-005
Heightened Def Con from 6.78048e-005 to 6.78048e-005
Heightened Def Con from 6.78048e-005 to 6.78048e-005
Heightened Def Con from 6.78048e-005 to 6.78048e-005
Heightened Def Con from 6.78048e-005 to 6.78048e-005
Heightened Def Con from 6.78048e-005 to 6.78048e-005
Heightened Def Con from 6.78048e-005 to 6.78048e-005
Heightened Def Con from 6.78049e-005 to 6.78049e-005
Heightened Def Con from 6.78049e-005 to 6.78049e-005
Heightened Def Con from 6.78049e-005 to 6.78049e-005
Heightened Def Con from 6.78049e-005 to 6.78049e-005
Heightened Def Con from 6.78049e-005 to 6.78049e-005
Heightened Def Con from 6.78049e-005 to 6.78049e-005
Heightened Def Con from 6.78049e-005 to 6.78049e-005
Heightened Def Con from 6.78049e-005 to 6.78049e-005
Heightened Def Con from 6.7805e-005 to 6.7807e-005
Heightened Def Con from 6.79161e-005 to 6.79191e-005
Heightened Def Con from 6.82999e-005 to 6.83019e-005
Heightened Def Con from 6.83182e-005 to 6.83194e-005
Heightened Def Con from 6.83195e-005 to 6.83204e-005
Heightened Def Con from 7.00008e-005 to 7.00068e-005
Heightened Def Con from 7.01535e-005 to 7.01535e-005
Heightened Def Con from 7.01539e-005 to 7.01543e-005
Heightened Def Con from 7.06624e-005 to 7.06644e-005
Heightened Def Con from 7.06698e-005 to 7.06698e-005
Heightened Def Con from 7.06703e-005 to 7.06703e-005
Heightened Def Con from 7.06704e-005 to 7.06712e-005
Heightened Def Con from 7.26475e-005 to 7.26555e-005
Heightened Def Con from 7.27833e-005 to 7.27863e-005
Heightened Def Con from 7.28039e-005 to 7.28039e-005
Heightened Def Con from 7.28039e-005 to 7.28039e-005
Heightened Def Con from 7.2804e-005 to 7.2804e-005
Heightened Def Con from 7.2804e-005 to 7.2804e-005
Heightened Def Con from 7.2804e-005 to 7.2804e-005
Heightened Def Con from 7.2804e-005 to 7.2804e-005
Heightened Def Con from 7.2804e-005 to 7.2804e-005
Heightened Def Con from 7.2804e-005 to 7.2804e-005
Heightened Def Con from 7.2804e-005 to 7.2804e-005
Heightened Def Con from 7.2804e-005 to 7.2804e-005
Heightened Def Con from 7.2804e-005 to 7.2804e-005
Heightened Def Con from 7.2804e-005 to 7.2804e-005
Heightened Def Con from 7.28041e-005 to 7.28041e-005
Heightened Def Con from 7.28041e-005 to 7.28041e-005
Heightened Def Con from 7.28046e-005 to 7.28046e-005
Heightened Def Con from 7.28046e-005 to 7.28046e-005
Heightened Def Con from 7.28046e-005 to 7.28046e-005
Heightened Def Con from 7.28046e-005 to 7.28047e-005
Heightened Def Con from 7.28047e-005 to 7.28047e-005
Heightened Def Con from 7.28047e-005 to 7.28047e-005
Heightened Def Con from 7.28047e-005 to 7.28047e-005
Heightened Def Con from 7.28047e-005 to 7.28047e-005
Heightened Def Con from 7.28047e-005 to 7.28047e-005
Heightened Def Con from 7.28047e-005 to 7.2805e-005
Heightened Def Con from 7.2805e-005 to 7.2812e-005
Heightened Def Con from 7.29854e-005 to 7.29884e-005
Heightened Def Con from 7.33191e-005 to 7.33211e-005
Heightened Def Con from 7.33215e-005 to 7.33228e-005
Heightened Def Con from 7.33229e-005 to 7.33237e-005
Heightened Def Con from 7.50003e-005 to 7.50073e-005
Heightened Def Con from 7.51367e-005 to 7.51397e-005
Heightened Def Con from 7.51457e-005 to 7.51487e-005
Heightened Def Con from 7.51526e-005 to 7.51532e-005
Heightened Def Con from 7.51541e-005 to 7.51621e-005
Heightened Def Con from 7.56708e-005 to 7.56718e-005
Heightened Def Con from 7.56718e-005 to 7.56718e-005
Heightened Def Con from 7.56719e-005 to 7.5672e-005
Heightened Def Con from 7.5672e-005 to 7.56729e-005
Heightened Def Con from 7.76455e-005 to 7.76555e-005
Heightened Def Con from 7.77834e-005 to 7.77864e-005
Heightened Def Con from 7.7804e-005 to 7.7804e-005
Heightened Def Con from 7.7804e-005 to 7.7804e-005
Heightened Def Con from 7.7804e-005 to 7.7804e-005
Heightened Def Con from 7.78041e-005 to 7.78041e-005
Heightened Def Con from 7.78041e-005 to 7.78041e-005
Heightened Def Con from 7.78042e-005 to 7.78042e-005
Heightened Def Con from 7.78042e-005 to 7.78042e-005
Heightened Def Con from 7.78042e-005 to 7.78042e-005
Heightened Def Con from 7.78042e-005 to 7.78042e-005
Heightened Def Con from 7.78042e-005 to 7.78042e-005
Heightened Def Con from 7.78042e-005 to 7.78042e-005
Heightened Def Con from 7.78042e-005 to 7.78042e-005
Heightened Def Con from 7.78042e-005 to 7.78042e-005
Heightened Def Con from 7.78043e-005 to 7.78043e-005
Heightened Def Con from 7.78043e-005 to 7.78043e-005
Heightened Def Con from 7.78043e-005 to 7.78043e-005
Heightened Def Con from 7.78043e-005 to 7.78043e-005
Heightened Def Con from 7.78043e-005 to 7.78043e-005
Heightened Def Con from 7.78044e-005 to 7.78044e-005
Heightened Def Con from 7.78044e-005 to 7.78044e-005
Heightened Def Con from 7.78044e-005 to 7.78044e-005
Heightened Def Con from 7.78044e-005 to 7.78044e-005
Heightened Def Con from 7.78044e-005 to 7.78044e-005
Heightened Def Con from 7.78044e-005 to 7.78044e-005
Heightened Def Con from 7.78044e-005 to 7.78044e-005
Heightened Def Con from 7.78044e-005 to 7.78044e-005
Heightened Def Con from 7.78044e-005 to 7.78045e-005
Heightened Def Con from 7.78045e-005 to 7.78045e-005
Heightened Def Con from 7.78045e-005 to 7.78045e-005
Heightened Def Con from 7.78045e-005 to 7.78045e-005
Heightened Def Con from 7.78045e-005 to 7.78045e-005
Heightened Def Con from 7.78045e-005 to 7.78045e-005
Heightened Def Con from 7.78045e-005 to 7.78045e-005
Heightened Def Con from 7.78045e-005 to 7.78045e-005
Heightened Def Con from 7.78045e-005 to 7.78045e-005
Heightened Def Con from 7.78045e-005 to 7.78046e-005
Heightened Def Con from 7.78046e-005 to 7.78046e-005
Heightened Def Con from 7.78046e-005 to 7.78046e-005
Heightened Def Con from 7.78046e-005 to 7.78046e-005
Heightened Def Con from 7.78046e-005 to 7.78046e-005
Heightened Def Con from 7.78046e-005 to 7.78046e-005
Heightened Def Con from 7.78046e-005 to 7.78046e-005
Heightened Def Con from 7.78046e-005 to 7.78046e-005
Heightened Def Con from 7.78046e-005 to 7.78046e-005
Heightened Def Con from 7.78047e-005 to 7.78047e-005
Heightened Def Con from 7.78048e-005 to 7.78048e-005
Heightened Def Con from 7.78048e-005 to 7.78068e-005
Heightened Def Con from 7.83136e-005 to 7.83156e-005
Heightened Def Con from 7.83162e-005 to 7.83174e-005
Heightened Def Con from 7.83175e-005 to 7.83184e-005
Heightened Def Con from 8.01509e-005 to 8.01515e-005
Heightened Def Con from 8.06681e-005 to 8.06681e-005
Heightened Def Con from 8.06681e-005 to 8.0669e-005
Heightened Def Con from 8.26476e-005 to 8.26556e-005
Heightened Def Con from 8.27833e-005 to 8.27863e-005
Heightened Def Con from 8.28039e-005 to 8.28039e-005
Heightened Def Con from 8.28039e-005 to 8.28039e-005
Heightened Def Con from 8.28039e-005 to 8.28039e-005
Heightened Def Con from 8.2804e-005 to 8.2804e-005
Heightened Def Con from 8.28046e-005 to 8.28046e-005
Heightened Def Con from 8.28046e-005 to 8.28046e-005
Heightened Def Con from 8.28046e-005 to 8.28046e-005
Heightened Def Con from 8.28046e-005 to 8.28046e-005
Heightened Def Con from 8.28046e-005 to 8.28046e-005
Heightened Def Con from 8.28046e-005 to 8.28046e-005
Heightened Def Con from 8.28046e-005 to 8.28046e-005
Heightened Def Con from 8.28046e-005 to 8.28046e-005
Heightened Def Con from 8.28046e-005 to 8.28047e-005
Heightened Def Con from 8.28047e-005 to 8.28047e-005
Heightened Def Con from 8.28047e-005 to 8.28047e-005
Heightened Def Con from 8.28047e-005 to 8.28047e-005
Heightened Def Con from 8.28047e-005 to 8.28047e-005
Heightened Def Con from 8.28047e-005 to 8.28047e-005
Heightened Def Con from 8.28047e-005 to 8.28067e-005
Heightened Def Con from 8.33106e-005 to 8.33126e-005
Heightened Def Con from 8.3319e-005 to 8.33202e-005
Heightened Def Con from 8.33203e-005 to 8.33212e-005
Heightened Def Con from 8.50003e-005 to 8.50083e-005
Heightened Def Con from 8.51587e-005 to 8.51587e-005
Heightened Def Con from 8.5159e-005 to 8.5159e-005
Heightened Def Con from 8.51597e-005 to 8.51598e-005
Heightened Def Con from 8.51601e-005 to 8.51608e-005
Heightened Def Con from 8.56677e-005 to 8.56677e-005
Heightened Def Con from 8.56677e-005 to 8.56677e-005
Heightened Def Con from 8.56677e-005 to 8.56677e-005
Heightened Def Con from 8.56678e-005 to 8.56678e-005
Heightened Def Con from 8.56678e-005 to 8.56686e-005
Heightened Def Con from 8.76475e-005 to 8.76555e-005
Heightened Def Con from 8.77833e-005 to 8.77863e-005
Heightened Def Con from 8.78039e-005 to 8.78039e-005
Heightened Def Con from 8.78039e-005 to 8.78039e-005
Heightened Def Con from 8.78039e-005 to 8.78039e-005
Heightened Def Con from 8.78039e-005 to 8.78039e-005
Heightened Def Con from 8.7804e-005 to 8.7804e-005
Heightened Def Con from 8.7804e-005 to 8.7804e-005
Heightened Def Con from 8.7804e-005 to 8.7804e-005
Heightened Def Con from 8.7804e-005 to 8.7804e-005
Heightened Def Con from 8.78041e-005 to 8.78041e-005
Heightened Def Con from 8.78041e-005 to 8.78041e-005
Heightened Def Con from 8.78041e-005 to 8.78041e-005
Heightened Def Con from 8.78042e-005 to 8.78042e-005
Heightened Def Con from 8.78042e-005 to 8.78043e-005
Heightened Def Con from 8.78043e-005 to 8.78043e-005
Heightened Def Con from 8.78043e-005 to 8.78043e-005
Heightened Def Con from 8.78043e-005 to 8.78043e-005
Heightened Def Con from 8.78043e-005 to 8.78043e-005
Heightened Def Con from 8.78043e-005 to 8.78043e-005
Heightened Def Con from 8.78043e-005 to 8.78043e-005
Heightened Def Con from 8.78043e-005 to 8.78043e-005
Heightened Def Con from 8.78043e-005 to 8.78043e-005
Heightened Def Con from 8.78044e-005 to 8.78044e-005
Heightened Def Con from 8.78044e-005 to 8.78044e-005
Heightened Def Con from 8.78044e-005 to 8.78044e-005
Heightened Def Con from 8.78044e-005 to 8.78044e-005
Heightened Def Con from 8.78044e-005 to 8.78044e-005
Heightened Def Con from 8.78044e-005 to 8.78044e-005
Heightened Def Con from 8.78044e-005 to 8.78044e-005
Heightened Def Con from 8.78044e-005 to 8.78044e-005
Heightened Def Con from 8.78046e-005 to 8.78046e-005
Heightened Def Con from 8.78046e-005 to 8.78046e-005
Heightened Def Con from 8.78046e-005 to 8.78046e-005
Heightened Def Con from 8.78046e-005 to 8.78046e-005
Heightened Def Con from 8.78046e-005 to 8.78046e-005
Heightened Def Con from 8.78046e-005 to 8.78046e-005
Heightened Def Con from 8.78046e-005 to 8.78046e-005
Heightened Def Con from 8.78046e-005 to 8.78046e-005
Heightened Def Con from 8.78046e-005 to 8.78046e-005
Heightened Def Con from 8.78047e-005 to 8.78048e-005
Heightened Def Con from 8.78048e-005 to 8.78128e-005
Heightened Def Con from 8.7918e-005 to 8.7921e-005
Heightened Def Con from 8.83054e-005 to 8.83074e-005
Heightened Def Con from 8.83193e-005 to 8.83204e-005
Heightened Def Con from 8.83207e-005 to 8.83221e-005
Heightened Def Con from 8.83221e-005 to 8.8323e-005
Heightened Def Con from 9.00007e-005 to 9.00057e-005
Heightened Def Con from 9.01572e-005 to 9.01579e-005
Heightened Def Con from 9.06718e-005 to 9.06718e-005
Heightened Def Con from 9.06718e-005 to 9.06718e-005
Heightened Def Con from 9.06719e-005 to 9.06719e-005
Heightened Def Con from 9.06719e-005 to 9.06728e-005
Heightened Def Con from 9.26458e-005 to 9.26548e-005
Heightened Def Con from 9.27827e-005 to 9.27857e-005
Heightened Def Con from 9.28034e-005 to 9.28034e-005
Heightened Def Con from 9.28034e-005 to 9.28034e-005
Heightened Def Con from 9.28034e-005 to 9.28034e-005
Heightened Def Con from 9.28034e-005 to 9.28034e-005
Heightened Def Con from 9.28035e-005 to 9.28035e-005
Heightened Def Con from 9.28035e-005 to 9.28035e-005
Heightened Def Con from 9.28035e-005 to 9.28035e-005
Heightened Def Con from 9.28035e-005 to 9.28035e-005
Heightened Def Con from 9.28036e-005 to 9.28036e-005
Heightened Def Con from 9.28036e-005 to 9.28036e-005
Heightened Def Con from 9.28036e-005 to 9.28036e-005
Heightened Def Con from 9.28036e-005 to 9.28036e-005
Heightened Def Con from 9.28036e-005 to 9.28036e-005
Heightened Def Con from 9.28036e-005 to 9.28036e-005
Heightened Def Con from 9.28036e-005 to 9.28036e-005
Heightened Def Con from 9.28036e-005 to 9.28036e-005
Heightened Def Con from 9.28036e-005 to 9.28036e-005
Heightened Def Con from 9.28037e-005 to 9.28037e-005
Heightened Def Con from 9.28037e-005 to 9.28037e-005
Heightened Def Con from 9.28037e-005 to 9.28037e-005
Heightened Def Con from 9.28037e-005 to 9.28037e-005
Heightened Def Con from 9.28037e-005 to 9.28037e-005
Heightened Def Con from 9.28038e-005 to 9.28038e-005
Heightened Def Con from 9.28038e-005 to 9.28038e-005
Heightened Def Con from 9.28038e-005 to 9.28038e-005
Heightened Def Con from 9.28039e-005 to 9.28039e-005
Heightened Def Con from 9.28039e-005 to 9.28039e-005
Heightened Def Con from 9.28039e-005 to 9.28039e-005
Heightened Def Con from 9.28039e-005 to 9.28039e-005
Heightened Def Con from 9.28039e-005 to 9.28039e-005
Heightened Def Con from 9.28039e-005 to 9.28039e-005
Heightened Def Con from 9.28039e-005 to 9.28039e-005
Heightened Def Con from 9.28039e-005 to 9.28039e-005
Heightened Def Con from 9.28039e-005 to 9.28039e-005
Heightened Def Con from 9.28039e-005 to 9.28039e-005
Heightened Def Con from 9.28039e-005 to 9.28039e-005
Heightened Def Con from 9.28039e-005 to 9.2804e-005
Heightened Def Con from 9.28041e-005 to 9.28041e-005
Heightened Def Con from 9.28041e-005 to 9.28041e-005
Heightened Def Con from 9.28041e-005 to 9.28045e-005
Heightened Def Con from 9.28045e-005 to 9.28115e-005
Heightened Def Con from 9.29169e-005 to 9.29199e-005
Heightened Def Con from 9.29842e-005 to 9.29872e-005
Heightened Def Con from 9.31846e-005 to 9.31876e-005
Heightened Def Con from 9.33149e-005 to 9.33169e-005
Heightened Def Con from 9.33179e-005 to 9.3318e-005
Heightened Def Con from 9.3318e-005 to 9.33191e-005
Heightened Def Con from 9.33192e-005 to 9.33196e-005
Heightened Def Con from 9.50002e-005 to 9.50082e-005
Heightened Def Con from 9.51637e-005 to 9.51638e-005
Heightened Def Con from 9.51638e-005 to 9.51638e-005
Heightened Def Con from 9.51644e-005 to 9.51644e-005
Heightened Def Con from 9.51649e-005 to 9.5165e-005
Heightened Def Con from 9.51655e-005 to 9.51661e-005
Heightened Def Con from 9.56732e-005 to 9.56732e-005
Heightened Def Con from 9.56732e-005 to 9.56732e-005
Heightened Def Con from 9.56732e-005 to 9.56732e-005
Heightened Def Con from 9.56732e-005 to 9.56732e-005
Heightened Def Con from 9.56733e-005 to 9.56736e-005
Heightened Def Con from 9.56755e-005 to 9.56785e-005
Heightened Def Con from 9.76468e-005 to 9.76548e-005
Heightened Def Con from 9.77826e-005 to 9.77856e-005
Heightened Def Con from 9.78032e-005 to 9.78032e-005
Heightened Def Con from 9.78032e-005 to 9.78032e-005
Heightened Def Con from 9.78032e-005 to 9.78032e-005
Heightened Def Con from 9.78032e-005 to 9.78032e-005
Heightened Def Con from 9.78032e-005 to 9.78032e-005
Heightened Def Con from 9.78033e-005 to 9.78033e-005
Heightened Def Con from 9.78039e-005 to 9.78039e-005
Heightened Def Con from 9.78039e-005 to 9.78039e-005
Heightened Def Con from 9.78039e-005 to 9.78039e-005
Heightened Def Con from 9.78039e-005 to 9.78039e-005
Heightened Def Con from 9.78039e-005 to 9.78039e-005
Heightened Def Con from 9.78039e-005 to 9.78039e-005
Heightened Def Con from 9.78039e-005 to 9.7804e-005
Heightened Def Con from 9.7804e-005 to 9.7804e-005
Heightened Def Con from 9.7804e-005 to 9.78045e-005
Heightened Def Con from 9.78045e-005 to 9.78115e-005
Heightened Def Con from 9.83013e-005 to 9.83033e-005
Heightened Def Con from 9.83195e-005 to 9.83208e-005
Heightened Def Con from 9.83208e-005 to 9.83217e-005
Heightened Def Con from 0.000100001 to 0.000100007
Heightened Def Con from 0.000100159 to 0.000100159
Heightened Def Con from 0.000100159 to 0.000100159
Heightened Def Con from 0.000100159 to 0.00010016
Heightened Def Con from 0.00010016 to 0.00010016
Heightened Def Con from 0.00010016 to 0.00010016
Heightened Def Con from 0.00010016 to 0.00010016
Heightened Def Con from 0.00010016 to 0.00010016
Heightened Def Con from 0.00010016 to 0.00010016
Heightened Def Con from 0.00010016 to 0.00010016
Heightened Def Con from 0.000100161 to 0.000100161
Heightened Def Con from 0.000100164 to 0.000100168
Heightened Def Con from 0.000100669 to 0.000100669
Heightened Def Con from 0.000100669 to 0.000100669
Heightened Def Con from 0.00010067 to 0.00010067
Heightened Def Con from 0.00010067 to 0.000100671
Heightened Def Con from 0.000102269 to 0.000102272
Heightened Def Con from 0.000102648 to 0.000102656
Heightened Def Con from 0.000102783 to 0.000102786
Heightened Def Con from 0.000102804 to 0.000102804
Heightened Def Con from 0.000102804 to 0.000102804
Heightened Def Con from 0.000102804 to 0.000102804
Heightened Def Con from 0.000102804 to 0.000102804
Heightened Def Con from 0.000102804 to 0.000102804
Heightened Def Con from 0.000102804 to 0.000102804
Heightened Def Con from 0.000102805 to 0.000102805
Heightened Def Con from 0.000102805 to 0.000102805
Heightened Def Con from 0.000102805 to 0.000102805
Heightened Def Con from 0.000102805 to 0.000102805
Heightened Def Con from 0.000102805 to 0.000102805
Heightened Def Con from 0.000102805 to 0.000102805
Heightened Def Con from 0.000102805 to 0.000102805
Heightened Def Con from 0.000102805 to 0.000102805
Heightened Def Con from 0.000102805 to 0.000102812
Heightened Def Con from 0.000103251 to 0.000103254
Heightened Def Con from 0.000103316 to 0.000103317
Heightened Def Con from 0.000103317 to 0.000103318
Heightened Def Con from 0.000103318 to 0.000103318
Heightened Def Con from 0.000103318 to 0.000103318
Heightened Def Con from 0.000103318 to 0.000103319
Heightened Def Con from 0.000103319 to 0.00010332
Heightened Def Con from 0.000105 to 0.000105007
Heightened Def Con from 0.000105158 to 0.000105158
Heightened Def Con from 0.00010567 to 0.000105671
Heightened Def Con from 0.000105671 to 0.000105671
Heightened Def Con from 0.000105671 to 0.000105671
Heightened Def Con from 0.000105671 to 0.000105671
Heightened Def Con from 0.000105671 to 0.000105672
Heightened Def Con from 0.000107648 to 0.000107656
Heightened Def Con from 0.000107783 to 0.000107786
Heightened Def Con from 0.000107804 to 0.000107804
Heightened Def Con from 0.000107804 to 0.000107804
Heightened Def Con from 0.000107804 to 0.000107804
Heightened Def Con from 0.000107804 to 0.000107804
Heightened Def Con from 0.000107804 to 0.000107804
Heightened Def Con from 0.000107804 to 0.000107804
Heightened Def Con from 0.000107804 to 0.000107804
Heightened Def Con from 0.000107804 to 0.000107804
Heightened Def Con from 0.000107804 to 0.000107804
Heightened Def Con from 0.000107804 to 0.000107804
Heightened Def Con from 0.000107805 to 0.000107805
Heightened Def Con from 0.000107805 to 0.000107805
Heightened Def Con from 0.000107805 to 0.000107805
Heightened Def Con from 0.000107805 to 0.000107805
Heightened Def Con from 0.000107805 to 0.000107805
Heightened Def Con from 0.000107805 to 0.000107805
Heightened Def Con from 0.000107805 to 0.000107805
Heightened Def Con from 0.000107805 to 0.000107805
Heightened Def Con from 0.000107805 to 0.000107812
Heightened Def Con from 0.000108299 to 0.000108301
Heightened Def Con from 0.000108313 to 0.000108314
Heightened Def Con from 0.000108314 to 0.000108316
Heightened Def Con from 0.000108316 to 0.000108316
Heightened Def Con from 0.000108316 to 0.000108321
Heightened Def Con from 0.000110001 to 0.000110005
Heightened Def Con from 0.000110157 to 0.000110157
Heightened Def Con from 0.000110158 to 0.000110158
Heightened Def Con from 0.000110269 to 0.000110272
Heightened Def Con from 0.000110665 to 0.000110667
Heightened Def Con from 0.00011067 to 0.00011067
Heightened Def Con from 0.00011067 to 0.00011067
Heightened Def Con from 0.00011067 to 0.000110671
Heightened Def Con from 0.000112647 to 0.000112655
Heightened Def Con from 0.000112783 to 0.000112786
Heightened Def Con from 0.000112804 to 0.000112804
Heightened Def Con from 0.000112804 to 0.000112804
Heightened Def Con from 0.000112804 to 0.000112804
Heightened Def Con from 0.000112804 to 0.000112804
Heightened Def Con from 0.000112804 to 0.000112804
Heightened Def Con from 0.000112804 to 0.000112804
Heightened Def Con from 0.000112804 to 0.000112804
Heightened Def Con from 0.000112804 to 0.000112804
Heightened Def Con from 0.000112804 to 0.000112804
Heightened Def Con from 0.000112804 to 0.000112804
Heightened Def Con from 0.000112804 to 0.000112804
Heightened Def Con from 0.000112804 to 0.000112804
Heightened Def Con from 0.000112804 to 0.000112804
Heightened Def Con from 0.000112804 to 0.000112804
Heightened Def Con from 0.000112804 to 0.000112804
Heightened Def Con from 0.000112804 to 0.000112804
Heightened Def Con from 0.000112804 to 0.000112804
Heightened Def Con from 0.000112804 to 0.000112804
Heightened Def Con from 0.000112804 to 0.000112804
Heightened Def Con from 0.000112804 to 0.000112804
Heightened Def Con from 0.000112804 to 0.000112804
Heightened Def Con from 0.000112804 to 0.000112804
Heightened Def Con from 0.000112804 to 0.000112804
Heightened Def Con from 0.000112804 to 0.000112804
Heightened Def Con from 0.000112804 to 0.000112804
Heightened Def Con from 0.000112804 to 0.000112804
Heightened Def Con from 0.000112804 to 0.000112805
Heightened Def Con from 0.000112805 to 0.000112812
Heightened Def Con from 0.00011285 to 0.000112853
Heightened Def Con from 0.000112918 to 0.000112921
Heightened Def Con from 0.000113315 to 0.000113317
Heightened Def Con from 0.000113317 to 0.000113318
Heightened Def Con from 0.000113318 to 0.000113318
Heightened Def Con from 0.000113318 to 0.000113322
Heightened Def Con from 0.000115001 to 0.000115006
Heightened Def Con from 0.000115157 to 0.000115158
Heightened Def Con from 0.000115672 to 0.000115672
Heightened Def Con from 0.000115672 to 0.000115672
Heightened Def Con from 0.000115672 to 0.000115672
Heightened Def Con from 0.000115672 to 0.000115672
Heightened Def Con from 0.000115672 to 0.000115673
Heightened Def Con from 0.000117261 to 0.000117264
Heightened Def Con from 0.000117648 to 0.000117656
Heightened Def Con from 0.000117783 to 0.000117786
Heightened Def Con from 0.000117804 to 0.000117804
Heightened Def Con from 0.000117804 to 0.000117804
Heightened Def Con from 0.000117804 to 0.000117804
Heightened Def Con from 0.000117804 to 0.000117804
Heightened Def Con from 0.000117804 to 0.000117804
Heightened Def Con from 0.000117804 to 0.000117804
Heightened Def Con from 0.000117804 to 0.000117804
Heightened Def Con from 0.000117804 to 0.000117804
Heightened Def Con from 0.000117804 to 0.000117804
Heightened Def Con from 0.000117804 to 0.000117804
Heightened Def Con from 0.000117805 to 0.000117805
Heightened Def Con from 0.000117805 to 0.000117805
Heightened Def Con from 0.000117805 to 0.000117805
Heightened Def Con from 0.000117805 to 0.000117805
Heightened Def Con from 0.000117805 to 0.000117805
Heightened Def Con from 0.000117805 to 0.000117805
Heightened Def Con from 0.000117805 to 0.000117807
Heightened Def Con from 0.000117916 to 0.000117919
Heightened Def Con from 0.00011805 to 0.000118053
Heightened Def Con from 0.000118298 to 0.0001183
Heightened Def Con from 0.000118317 to 0.000118317
Heightened Def Con from 0.000118317 to 0.000118318
Heightened Def Con from 0.000118319 to 0.000118319
Heightened Def Con from 0.000119999 to 0.000120007
Heightened Def Con from 0.000120135 to 0.000120138
Heightened Def Con from 0.000120157 to 0.000120157
Heightened Def Con from 0.000120159 to 0.000120159
Heightened Def Con from 0.000120606 to 0.000120609
Heightened Def Con from 0.000120673 to 0.000120673
Heightened Def Con from 0.000120673 to 0.000120674
Heightened Def Con from 0.000122404 to 0.000122406
Heightened Def Con from 0.000122648 to 0.000122656
Heightened Def Con from 0.000122784 to 0.000122787
Heightened Def Con from 0.000122793 to 0.000122797
Heightened Def Con from 0.000122797 to 0.000122797
Heightened Def Con from 0.000122797 to 0.000122797
Heightened Def Con from 0.000122797 to 0.000122797
Heightened Def Con from 0.000122797 to 0.000122797
Heightened Def Con from 0.000122797 to 0.000122797
Heightened Def Con from 0.000122797 to 0.000122797
Heightened Def Con from 0.000122797 to 0.000122797
Heightened Def Con from 0.000122797 to 0.000122797
Heightened Def Con from 0.000122797 to 0.000122797
Heightened Def Con from 0.000122797 to 0.000122797
Heightened Def Con from 0.000122797 to 0.000122797
Heightened Def Con from 0.000122797 to 0.000122797
Heightened Def Con from 0.000122797 to 0.000122797
Heightened Def Con from 0.000122797 to 0.000122797
Heightened Def Con from 0.000122797 to 0.000122797
Heightened Def Con from 0.000122797 to 0.000122797
Heightened Def Con from 0.000122798 to 0.000122798
Heightened Def Con from 0.000122798 to 0.000122798
Heightened Def Con from 0.000122798 to 0.000122798
Heightened Def Con from 0.000122798 to 0.000122798
Heightened Def Con from 0.000122798 to 0.000122798
Heightened Def Con from 0.000122798 to 0.000122798
Heightened Def Con from 0.000122798 to 0.000122798
Heightened Def Con from 0.000122798 to 0.000122798
Heightened Def Con from 0.000122798 to 0.000122798
Heightened Def Con from 0.000122798 to 0.000122798
Heightened Def Con from 0.000122798 to 0.000122798
Heightened Def Con from 0.000122798 to 0.000122798
Heightened Def Con from 0.000122798 to 0.000122798
Heightened Def Con from 0.000122798 to 0.000122798
Heightened Def Con from 0.000122798 to 0.000122798
Heightened Def Con from 0.000122798 to 0.000122798
Heightened Def Con from 0.000122798 to 0.000122798
Heightened Def Con from 0.000122798 to 0.000122798
Heightened Def Con from 0.000122798 to 0.000122798
Heightened Def Con from 0.000122798 to 0.000122798
Heightened Def Con from 0.000122798 to 0.000122798
Heightened Def Con from 0.000122798 to 0.000122798
Heightened Def Con from 0.000122798 to 0.0001228
Heightened Def Con from 0.000122919 to 0.000122922
Heightened Def Con from 0.000123319 to 0.000123321
Heightened Def Con from 0.000123324 to 0.000123325
Heightened Def Con from 0.000123325 to 0.000123326
Heightened Def Con from 0.000125001 to 0.000125007
Heightened Def Con from 0.000125153 to 0.000125153
Heightened Def Con from 0.000125153 to 0.000125153
Heightened Def Con from 0.000125154 to 0.000125155
Heightened Def Con from 0.000125672 to 0.000125672
Heightened Def Con from 0.000125672 to 0.000125672
Heightened Def Con from 0.000125672 to 0.000125673
Heightened Def Con from 0.000127648 to 0.000127656
Heightened Def Con from 0.000127783 to 0.000127786
Heightened Def Con from 0.000127804 to 0.000127804
Heightened Def Con from 0.000127804 to 0.000127804
Heightened Def Con from 0.000127804 to 0.000127804
Heightened Def Con from 0.000127804 to 0.000127804
Heightened Def Con from 0.000127804 to 0.000127804
Heightened Def Con from 0.000127804 to 0.000127804
Heightened Def Con from 0.000127804 to 0.000127804
Heightened Def Con from 0.000127804 to 0.000127804
Heightened Def Con from 0.000127804 to 0.000127804
Heightened Def Con from 0.000127805 to 0.000127805
Heightened Def Con from 0.000127805 to 0.000127805
Heightened Def Con from 0.000127805 to 0.000127805
Heightened Def Con from 0.000127805 to 0.000127805
Heightened Def Con from 0.000127805 to 0.000127805
Heightened Def Con from 0.000127805 to 0.000127805
Heightened Def Con from 0.000127805 to 0.000127805
Heightened Def Con from 0.000127805 to 0.000127805
Heightened Def Con from 0.000127805 to 0.000127805
Heightened Def Con from 0.000127805 to 0.000127805
Heightened Def Con from 0.000127805 to 0.000127805
Heightened Def Con from 0.000127805 to 0.000127805
Heightened Def Con from 0.000127805 to 0.000127805
Heightened Def Con from 0.000127805 to 0.000127805
Heightened Def Con from 0.000127805 to 0.000127813
Heightened Def Con from 0.000128251 to 0.000128254
Heightened Def Con from 0.000128316 to 0.000128317
Heightened Def Con from 0.000128317 to 0.000128319
Heightened Def Con from 0.000128319 to 0.000128319
Heightened Def Con from 0.00013 to 0.000130007
Heightened Def Con from 0.000130152 to 0.000130152
Heightened Def Con from 0.000130152 to 0.000130152
Heightened Def Con from 0.000130152 to 0.000130152
Heightened Def Con from 0.000130153 to 0.000130153
Heightened Def Con from 0.000130153 to 0.000130164
Heightened Def Con from 0.000130471 to 0.000130474
Heightened Def Con from 0.000130665 to 0.000130667
Heightened Def Con from 0.00013067 to 0.000130671
Heightened Def Con from 0.000130672 to 0.000130672
Heightened Def Con from 0.000130672 to 0.000130673
Heightened Def Con from 0.000132646 to 0.000132655
Heightened Def Con from 0.000132783 to 0.000132786
Heightened Def Con from 0.000132805 to 0.000132805
Heightened Def Con from 0.000132805 to 0.000132805
Heightened Def Con from 0.000132805 to 0.000132805
Heightened Def Con from 0.000132805 to 0.000132812
Heightened Def Con from 0.000133306 to 0.000133308
Heightened Def Con from 0.000133315 to 0.000133317
Heightened Def Con from 0.00013332 to 0.000133321
Heightened Def Con from 0.000133321 to 0.000133322
Heightened Def Con from 0.000133322 to 0.000133323
Heightened Def Con from 0.000135 to 0.000135008
Heightened Def Con from 0.000135136 to 0.000135139
Heightened Def Con from 0.000135158 to 0.000135158
Heightened Def Con from 0.000135158 to 0.000135158
Heightened Def Con from 0.000135159 to 0.00013516
Heightened Def Con from 0.000135671 to 0.000135671
Heightened Def Con from 0.000135672 to 0.000135672
Heightened Def Con from 0.000135672 to 0.000135672
Heightened Def Con from 0.000135672 to 0.000135672
Heightened Def Con from 0.000135672 to 0.000135672
Heightened Def Con from 0.000135672 to 0.000135673
Heightened Def Con from 0.000137642 to 0.000137644
Heightened Def Con from 0.000137647 to 0.000137655
Heightened Def Con from 0.000137783 to 0.000137786
Heightened Def Con from 0.000137804 to 0.000137804
Heightened Def Con from 0.000137804 to 0.000137804
Heightened Def Con from 0.000137804 to 0.000137804
Heightened Def Con from 0.000137804 to 0.000137804
Heightened Def Con from 0.000137804 to 0.000137804
Heightened Def Con from 0.000137804 to 0.000137804
Heightened Def Con from 0.000137804 to 0.000137804
Heightened Def Con from 0.000137804 to 0.000137804
Heightened Def Con from 0.000137804 to 0.000137804
Heightened Def Con from 0.000137804 to 0.000137804
Heightened Def Con from 0.000137804 to 0.000137804
Heightened Def Con from 0.000137804 to 0.000137804
Heightened Def Con from 0.000137804 to 0.000137804
Heightened Def Con from 0.000137804 to 0.000137805
Heightened Def Con from 0.000137805 to 0.000137812
Heightened Def Con from 0.000137918 to 0.000137921
Heightened Def Con from 0.000138319 to 0.00013832
Heightened Def Con from 0.000138321 to 0.000138321
Heightened Def Con from 0.000138321 to 0.000138321
Heightened Def Con from 0.000138321 to 0.000138321
Heightened Def Con from 0.000138321 to 0.000138322
Heightened Def Con from 0.000138322 to 0.000138323
Heightened Def Con from 0.000138323 to 0.000138327
Heightened Def Con from 0.000140001 to 0.000140006
Heightened Def Con from 0.000140144 to 0.000140147
Heightened Def Con from 0.000140149 to 0.000140149
Heightened Def Con from 0.00014015 to 0.00014015
Heightened Def Con from 0.00014015 to 0.00014015
Heightened Def Con from 0.00014015 to 0.00014015
Heightened Def Con from 0.00014015 to 0.00014015
Heightened Def Con from 0.00014015 to 0.00014015
Heightened Def Con from 0.000140151 to 0.000140151
Heightened Def Con from 0.000140151 to 0.000140151
Heightened Def Con from 0.000140151 to 0.000140152
Heightened Def Con from 0.000140672 to 0.000140672
Heightened Def Con from 0.000140672 to 0.000140672
Heightened Def Con from 0.000140672 to 0.000140672
Heightened Def Con from 0.000140672 to 0.000140673
Heightened Def Con from 0.000142646 to 0.000142656
Heightened Def Con from 0.000142783 to 0.000142786
Heightened Def Con from 0.000142804 to 0.000142804
Heightened Def Con from 0.000142804 to 0.000142804
Heightened Def Con from 0.000142804 to 0.000142804
Heightened Def Con from 0.000142804 to 0.000142804
Heightened Def Con from 0.000142805 to 0.000142805
Heightened Def Con from 0.000142805 to 0.000142805
Heightened Def Con from 0.000142805 to 0.000142805
Heightened Def Con from 0.000142805 to 0.000142805
Heightened Def Con from 0.000142805 to 0.000142805
Heightened Def Con from 0.000142805 to 0.000142805
Heightened Def Con from 0.000142805 to 0.000142805
Heightened Def Con from 0.000142805 to 0.000142805
Heightened Def Con from 0.000142805 to 0.000142805
Heightened Def Con from 0.000142805 to 0.000142812
Heightened Def Con from 0.000143318 to 0.00014332
Heightened Def Con from 0.000143323 to 0.000143324
Heightened Def Con from 0.000143324 to 0.000143325
Heightened Def Con from 0.000145001 to 0.000145008
Heightened Def Con from 0.000145154 to 0.000145157
Heightened Def Con from 0.00014516 to 0.000145161
Heightened Def Con from 0.000145538 to 0.000145541
Heightened Def Con from 0.000145657 to 0.00014566
Heightened Def Con from 0.000145672 to 0.000145672
Heightened Def Con from 0.000145672 to 0.000145672
Heightened Def Con from 0.000145672 to 0.000145673
Heightened Def Con from 0.000147646 to 0.000147655
Heightened Def Con from 0.000147783 to 0.000147786
Heightened Def Con from 0.000147804 to 0.000147804
Heightened Def Con from 0.000147804 to 0.000147804
Heightened Def Con from 0.000147804 to 0.000147804
Heightened Def Con from 0.000147804 to 0.000147804
Heightened Def Con from 0.000147804 to 0.000147804
Heightened Def Con from 0.000147804 to 0.000147804
Heightened Def Con from 0.000147804 to 0.000147804
Heightened Def Con from 0.000147804 to 0.000147804
Heightened Def Con from 0.000147804 to 0.000147804
Heightened Def Con from 0.000147804 to 0.000147804
Heightened Def Con from 0.000147804 to 0.000147804
Heightened Def Con from 0.000147804 to 0.000147804
Heightened Def Con from 0.000147804 to 0.000147804
Heightened Def Con from 0.000147804 to 0.000147804
Heightened Def Con from 0.000147804 to 0.000147804
Heightened Def Con from 0.000147804 to 0.000147812
Heightened Def Con from 0.000148119 to 0.000148122
Heightened Def Con from 0.000148313 to 0.000148315
Heightened Def Con from 0.000148318 to 0.000148319
Heightened Def Con from 0.000148319 to 0.000148321
Heightened Def Con from 0.000148321 to 0.000148321
Heightened Def Con from 0.000148321 to 0.000148325
Heightened Def Con from 0.00015 to 0.000150007
Heightened Def Con from 0.000150156 to 0.000150156
Heightened Def Con from 0.000150156 to 0.000150156
Heightened Def Con from 0.000150156 to 0.000150156
Heightened Def Con from 0.000150157 to 0.000150158
Heightened Def Con from 0.000150671 to 0.000150671
Heightened Def Con from 0.000150671 to 0.000150671
Heightened Def Con from 0.000150671 to 0.000150671
Heightened Def Con from 0.000150671 to 0.000150671
Heightened Def Con from 0.000150672 to 0.000150672
Heightened Def Con from 0.000152647 to 0.000152656
Heightened Def Con from 0.000152783 to 0.000152786
Heightened Def Con from 0.000152804 to 0.000152804
Heightened Def Con from 0.000152804 to 0.000152804
Heightened Def Con from 0.000152804 to 0.000152804
Heightened Def Con from 0.000152804 to 0.000152804
Heightened Def Con from 0.000152804 to 0.000152804
Heightened Def Con from 0.000152804 to 0.000152804
Heightened Def Con from 0.000152804 to 0.000152804
Heightened Def Con from 0.000152804 to 0.000152804
Heightened Def Con from 0.000152804 to 0.000152804
Heightened Def Con from 0.000152804 to 0.000152804
Heightened Def Con from 0.000152804 to 0.000152804
Heightened Def Con from 0.000152804 to 0.000152804
Heightened Def Con from 0.000152804 to 0.000152804
Heightened Def Con from 0.000152804 to 0.000152804
Heightened Def Con from 0.000152804 to 0.000152804
Heightened Def Con from 0.000152804 to 0.000152804
Heightened Def Con from 0.000152804 to 0.000152804
Heightened Def Con from 0.000152804 to 0.000152804
Heightened Def Con from 0.000152804 to 0.000152804
Heightened Def Con from 0.000152805 to 0.000152805
Heightened Def Con from 0.000152805 to 0.000152805
Heightened Def Con from 0.000152805 to 0.000152805
Heightened Def Con from 0.000152805 to 0.000152805
Heightened Def Con from 0.000152805 to 0.000152805
Heightened Def Con from 0.000152805 to 0.000152805
Heightened Def Con from 0.000152805 to 0.000152805
Heightened Def Con from 0.000152805 to 0.000152807
Heightened Def Con from 0.000153313 to 0.000153314
Heightened Def Con from 0.000153315 to 0.000153316
Heightened Def Con from 0.000153316 to 0.000153317
Heightened Def Con from 0.000155158 to 0.000155158
Heightened Def Con from 0.000155158 to 0.000155159
Heightened Def Con from 0.000155159 to 0.000155168
Heightened Def Con from 0.000155672 to 0.000155672
Heightened Def Con from 0.000155672 to 0.000155672
Heightened Def Con from 0.000155672 to 0.000155673
Heightened Def Con from 0.000157647 to 0.000157655
Heightened Def Con from 0.000157783 to 0.000157786
Heightened Def Con from 0.000157803 to 0.000157803
Heightened Def Con from 0.000157803 to 0.000157803
Heightened Def Con from 0.000157803 to 0.000157803
Heightened Def Con from 0.000157803 to 0.000157803
Heightened Def Con from 0.000157803 to 0.000157803
Heightened Def Con from 0.000157803 to 0.000157803
Heightened Def Con from 0.000157803 to 0.000157803
Heightened Def Con from 0.000157804 to 0.000157804
Heightened Def Con from 0.000157804 to 0.000157804
Heightened Def Con from 0.000157804 to 0.000157805
Heightened Def Con from 0.000157805 to 0.000157812
Heightened Def Con from 0.000158322 to 0.000158324
Heightened Def Con from 0.000158324 to 0.000158324
Heightened Def Con from 0.000158324 to 0.000158329
Heightened Def Con from 0.00016 to 0.000160007
Heightened Def Con from 0.000160155 to 0.000160155
Heightened Def Con from 0.000160157 to 0.000160157
Heightened Def Con from 0.000160157 to 0.000160157
Heightened Def Con from 0.000160157 to 0.000160157
Heightened Def Con from 0.000160157 to 0.000160158
Heightened Def Con from 0.00016067 to 0.000160671
Heightened Def Con from 0.000162648 to 0.000162656
Heightened Def Con from 0.000162804 to 0.000162804
Heightened Def Con from 0.000162804 to 0.000162804
Heightened Def Con from 0.000162804 to 0.000162804
Heightened Def Con from 0.000162804 to 0.000162804
Heightened Def Con from 0.000162804 to 0.000162804
Heightened Def Con from 0.000162804 to 0.000162804
Heightened Def Con from 0.000162804 to 0.000162804
Heightened Def Con from 0.000162804 to 0.000162804
Heightened Def Con from 0.000162804 to 0.000162804
Heightened Def Con from 0.000162804 to 0.000162804
Heightened Def Con from 0.000162804 to 0.000162804
Heightened Def Con from 0.000162804 to 0.000162804
Heightened Def Con from 0.000162804 to 0.000162804
Heightened Def Con from 0.000162804 to 0.000162804
Heightened Def Con from 0.000162804 to 0.000162804
Heightened Def Con from 0.000162804 to 0.000162804
Heightened Def Con from 0.000162804 to 0.000162804
Heightened Def Con from 0.000162804 to 0.000162804
Heightened Def Con from 0.000162804 to 0.000162804
Heightened Def Con from 0.000162804 to 0.000162804
Heightened Def Con from 0.000162804 to 0.000162804
Heightened Def Con from 0.000162804 to 0.000162804
Heightened Def Con from 0.000162804 to 0.000162804
Heightened Def Con from 0.000162804 to 0.000162804
Heightened Def Con from 0.000162804 to 0.000162804
Heightened Def Con from 0.000162804 to 0.000162804
Heightened Def Con from 0.000162804 to 0.000162804
Heightened Def Con from 0.000162804 to 0.000162804
Heightened Def Con from 0.000162804 to 0.000162804
Heightened Def Con from 0.000162804 to 0.000162804
Heightened Def Con from 0.000162804 to 0.000162804
Heightened Def Con from 0.000162804 to 0.000162804
Heightened Def Con from 0.000162804 to 0.000162804
Heightened Def Con from 0.000162804 to 0.000162804
Heightened Def Con from 0.000162804 to 0.000162804
Heightened Def Con from 0.000162804 to 0.000162804
Heightened Def Con from 0.000162804 to 0.000162804
Heightened Def Con from 0.000162804 to 0.000162804
Heightened Def Con from 0.000162804 to 0.000162806
Heightened Def Con from 0.000162919 to 0.000162922
Heightened Def Con from 0.000163316 to 0.000163318
Heightened Def Con from 0.000163321 to 0.000163322
Heightened Def Con from 0.000163322 to 0.000163322
Heightened Def Con from 0.000163322 to 0.000163323
Heightened Def Con from 0.000164792 to 0.000164794
Heightened Def Con from 0.000165154 to 0.000165154
Heightened Def Con from 0.000165155 to 0.000165155
Heightened Def Con from 0.000165155 to 0.000165155
Heightened Def Con from 0.000165155 to 0.000165155
Heightened Def Con from 0.000165156 to 0.000165157
Heightened Def Con from 0.000165669 to 0.000165669
Heightened Def Con from 0.000165669 to 0.000165669
Heightened Def Con from 0.000165669 to 0.00016567
Heightened Def Con from 0.000167648 to 0.000167656
Heightened Def Con from 0.000167717 to 0.00016772
Heightened Def Con from 0.000167804 to 0.000167804
Heightened Def Con from 0.000167804 to 0.000167804
Heightened Def Con from 0.000167804 to 0.000167804
Heightened Def Con from 0.000167804 to 0.000167804
Heightened Def Con from 0.000167804 to 0.000167804
Heightened Def Con from 0.000167804 to 0.000167804
Heightened Def Con from 0.000167804 to 0.000167804
Heightened Def Con from 0.000167804 +to 0.000167804
Heightened Def Con from 0.000167804 to 0.000167806
Heightened Def Con from 0.000168315 to 0.000168317
Heightened Def Con from 0.00016832 to 0.000168322
Heightened Def Con from 0.000168322 to 0.000168323
Heightened Def Con from 0.000170001 to 0.000170008
Heightened Def Con from 0.000170154 to 0.000170157
Heightened Def Con from 0.000170158 to 0.000170158
Heightened Def Con from 0.00017016 to 0.00017016
Heightened Def Con from 0.00017067 to 0.00017067
Heightened Def Con from 0.00017067 to 0.00017067
Heightened Def Con from 0.000172569 to 0.000172571
Heightened Def Con from 0.000172648 to 0.000172656
Heightened Def Con from 0.000172783 to 0.000172786
Heightened Def Con from 0.000172804 to 0.000172804
Heightened Def Con from 0.000172804 to 0.000172804
Heightened Def Con from 0.000172804 to 0.000172804
Heightened Def Con from 0.000172804 to 0.000172804
Heightened Def Con from 0.000172804 to 0.000172804
Heightened Def Con from 0.000172804 to 0.000172804
Heightened Def Con from 0.000172804 to 0.000172804
Heightened Def Con from 0.000172804 to 0.000172804
Heightened Def Con from 0.000172804 to 0.000172804
Heightened Def Con from 0.000172804 to 0.000172804
Heightened Def Con from 0.000172804 to 0.000172804
Heightened Def Con from 0.000172804 to 0.000172804
Heightened Def Con from 0.000172804 to 0.000172804
Heightened Def Con from 0.000172804 to 0.000172804
Heightened Def Con from 0.000172804 to 0.000172804
Heightened Def Con from 0.000172804 to 0.000172804
Heightened Def Con from 0.000172804 to 0.000172805
Heightened Def Con from 0.000172805 to 0.000172805
Heightened Def Con from 0.000172805 to 0.000172805
Heightened Def Con from 0.000172805 to 0.000172805
Heightened Def Con from 0.000172805 to 0.000172805
Heightened Def Con from 0.000172805 to 0.000172807
Heightened Def Con from 0.00017325 to 0.000173253
Heightened Def Con from 0.000173313 to 0.000173315
Heightened Def Con from 0.000173317 to 0.000173318
Heightened Def Con from 0.000173318 to 0.000173318
Heightened Def Con from 0.000173318 to 0.000173323
Heightened Def Con from 0.000175 to 0.000175008
Heightened Def Con from 0.000175136 to 0.000175139
Heightened Def Con from 0.000175158 to 0.000175158
Heightened Def Con from 0.000175158 to 0.000175158
Heightened Def Con from 0.000175159 to 0.000175159
Heightened Def Con from 0.000175159 to 0.000175159
Heightened Def Con from 0.000175159 to 0.000175159
Heightened Def Con from 0.000175159 to 0.000175159
Heightened Def Con from 0.000175159 to 0.000175159
Heightened Def Con from 0.000175159 to 0.00017516
Heightened Def Con from 0.000175606 to 0.000175609
Heightened Def Con from 0.000175669 to 0.000175671
Heightened Def Con from 0.000175672 to 0.000175672
Heightened Def Con from 0.000175673 to 0.000175674
Heightened Def Con from 0.000177647 to 0.000177655
Heightened Def Con from 0.000177783 to 0.000177786
Heightened Def Con from 0.000177804 to 0.000177804
Heightened Def Con from 0.000177804 to 0.000177804
Heightened Def Con from 0.000177804 to 0.000177804
Heightened Def Con from 0.000177804 to 0.000177804
Heightened Def Con from 0.000177804 to 0.000177804
Heightened Def Con from 0.000177804 to 0.000177804
Heightened Def Con from 0.000177804 to 0.000177804
Heightened Def Con from 0.000177804 to 0.000177804
Heightened Def Con from 0.000177804 to 0.000177804
Heightened Def Con from 0.000177804 to 0.000177804
Heightened Def Con from 0.000177804 to 0.000177804
Heightened Def Con from 0.000177804 to 0.000177804
Heightened Def Con from 0.000177804 to 0.000177804
Heightened Def Con from 0.000177804 to 0.000177804
Heightened Def Con from 0.000177804 to 0.000177804
Heightened Def Con from 0.000177804 to 0.000177804
Heightened Def Con from 0.000177804 to 0.000177804
Heightened Def Con from 0.000177804 to 0.000177804
Heightened Def Con from 0.000177804 to 0.000177804
Heightened Def Con from 0.000177804 to 0.000177804
Heightened Def Con from 0.000177804 to 0.000177804
Heightened Def Con from 0.000177804 to 0.000177804
Heightened Def Con from 0.000177804 to 0.000177805
Heightened Def Con from 0.000177805 to 0.000177812
Heightened Def Con from 0.000178313 to 0.000178315
Heightened Def Con from 0.000178319 to 0.000178321
Heightened Def Con from 0.000178322 to 0.000178323
Heightened Def Con from 0.000178323 to 0.000178324
Heightened Def Con from 0.000180156 to 0.000180156
Heightened Def Con from 0.000180156 to 0.000180156
Heightened Def Con from 0.000180157 to 0.000180157
Heightened Def Con from 0.000180157 to 0.000180157
Heightened Def Con from 0.000180157 to 0.000180158
Heightened Def Con from 0.000180603 to 0.000180606
Heightened Def Con from 0.000180665 to 0.000180668
Heightened Def Con from 0.000180669 to 0.000180669
Heightened Def Con from 0.000180669 to 0.000180669
Heightened Def Con from 0.000180669 to 0.000180669
Heightened Def Con from 0.00018067 to 0.00018067
Heightened Def Con from 0.00018067 to 0.00018067
Heightened Def Con from 0.00018067 to 0.00018067
Heightened Def Con from 0.00018067 to 0.00018067
Heightened Def Con from 0.00018067 to 0.000180671
Heightened Def Con from 0.000182648 to 0.000182656
Heightened Def Con from 0.000182783 to 0.000182786
Heightened Def Con from 0.000182804 to 0.000182804
Heightened Def Con from 0.000182804 to 0.000182804
Heightened Def Con from 0.000182804 to 0.000182804
Heightened Def Con from 0.000182804 to 0.000182804
Heightened Def Con from 0.000182804 to 0.000182804
Heightened Def Con from 0.000182804 to 0.000182804
Heightened Def Con from 0.000182804 to 0.000182804
Heightened Def Con from 0.000182804 to 0.000182804
Heightened Def Con from 0.000182804 to 0.000182804
Heightened Def Con from 0.000182804 to 0.000182804
Heightened Def Con from 0.000182804 to 0.000182804
Heightened Def Con from 0.000182804 to 0.000182804
Heightened Def Con from 0.000182804 to 0.000182804
Heightened Def Con from 0.000182804 to 0.000182804
Heightened Def Con from 0.000182805 to 0.000182805
Heightened Def Con from 0.000182805 to 0.000182805
Heightened Def Con from 0.000182805 to 0.000182805
Heightened Def Con from 0.000182805 to 0.000182805
Heightened Def Con from 0.000182805 to 0.000182805
Heightened Def Con from 0.000182805 to 0.000182805
[...]
Heightened Def Con from 0.00035067 to 0.000350671
Heightened Def Con from 0.000352647 to 0.000352656
Heightened Def Con from 0.000352783 to 0.000352786
Heightened Def Con from 0.000352804 to 0.000352804
Heightened Def Con from 0.000352804 to 0.000352804
Heightened Def Con from 0.000352804 to 0.000352804
Heightened Def Con from 0.000352804 to 0.000352804
Heightened Def Con from 0.000352804 to 0.000352804
Heightened Def Con from 0.000352804 to 0.000352804
Heightened Def Con from 0.000352804 to 0.000352804
Heightened Def Con from 0.000352804 to 0.000352804
Heightened Def Con from 0.000352805 to 0.000352805
Heightened Def Con from 0.000352805 to 0.000352805
Heightened Def Con from 0.000352805 to 0.000352805
Heightened Def Con from 0.000352805 to 0.000352805
Heightened Def Con from 0.000352805 to 0.000352805
Heightened Def Con from 0.000352805 to 0.000352807
Heightened Def Con from 0.000352916 to 0.000352919
Heightened Def Con from 0.000353297 to 0.000353299
Heightened Def Con from 0.000353316 to 0.000353317
Heightened Def Con from 0.000353317 to 0.000353318
Heightened Def Con from 0.000355 to 0.000355008
Heightened Def Con from 0.000355136 to 0.000355139
Heightened Def Con from 0.000355157 to 0.000355157
Heightened Def Con from 0.000355157 to 0.000355158
Heightened Def Con from 0.000355159 to 0.000355159
Heightened Def Con from 0.000355159 to 0.00035516
Heightened Def Con from 0.000355672 to 0.000355672
Heightened Def Con from 0.000355672 to 0.000355672
Heightened Def Con from 0.000355673 to 0.000355673
Heightened Def Con from 0.000355673 to 0.000355673
Heightened Def Con from 0.000355673 to 0.000355674
Heightened Def Con from 0.00035727 to 0.000357273
Heightened Def Con from 0.000357648 to 0.000357656
Heightened Def Con from 0.000357783 to 0.000357786
Heightened Def Con from 0.000357804 to 0.000357804
Heightened Def Con from 0.000357804 to 0.000357804
Heightened Def Con from 0.000357804 to 0.000357804
Heightened Def Con from 0.000357804 to 0.000357804
Heightened Def Con from 0.000357804 to 0.000357804
Heightened Def Con from 0.000357804 to 0.000357804
Heightened Def Con from 0.000357804 to 0.000357804
Heightened Def Con from 0.000357804 to 0.000357804
Heightened Def Con from 0.000357804 to 0.000357804
Heightened Def Con from 0.000357804 to 0.000357804
Heightened Def Con from 0.000357804 to 0.000357804
Heightened Def Con from 0.000357804 to 0.000357804
Heightened Def Con from 0.000357804 to 0.000357804
Heightened Def Con from 0.000357804 to 0.000357804
Heightened Def Con from 0.000357804 to 0.000357804
Heightened Def Con from 0.000357804 to 0.000357804
Heightened Def Con from 0.000357805 to 0.000357805
Heightened Def Con from 0.000357805 to 0.000357805
Heightened Def Con from 0.000357805 to 0.000357805
Heightened Def Con from 0.000357805 to 0.000357805
Heightened Def Con from 0.000357805 to 0.000357805
Heightened Def Con from 0.000357805 to 0.000357812
Heightened Def Con from 0.000358306 to 0.000358308
Heightened Def Con from 0.000358315 to 0.000358317
Heightened Def Con from 0.000358321 to 0.000358321
Heightened Def Con from 0.000358321 to 0.000358323
Heightened Def Con from 0.000358323 to 0.000358323
Heightened Def Con from 0.000360001 to 0.000360006
Heightened Def Con from 0.000360157 to 0.000360158
Heightened Def Con from 0.000360661 to 0.000360663
Heightened Def Con from 0.000360671 to 0.000360672
Heightened Def Con from 0.000362576 to 0.000362579
Heightened Def Con from 0.000362648 to 0.000362656
Heightened Def Con from 0.000362783 to 0.000362786
Heightened Def Con from 0.000362804 to 0.000362804
Heightened Def Con from 0.000362804 to 0.000362804
Heightened Def Con from 0.000362804 to 0.000362804
Heightened Def Con from 0.000362804 to 0.000362804
Heightened Def Con from 0.000362804 to 0.000362804
Heightened Def Con from 0.000362804 to 0.000362804
Heightened Def Con from 0.000362804 to 0.000362804
Heightened Def Con from 0.000362805 to 0.000362805
Heightened Def Con from 0.000362805 to 0.000362805
Heightened Def Con from 0.000362805 to 0.000362805
Heightened Def Con from 0.000362805 to 0.000362805
Heightened Def Con from 0.000362805 to 0.000362805
Heightened Def Con from 0.000362805 to 0.000362805
Heightened Def Con from 0.000362805 to 0.000362805
Heightened Def Con from 0.000362805 to 0.000362805
Heightened Def Con from 0.000362805 to 0.000362805
Heightened Def Con from 0.000362805 to 0.000362805
Heightened Def Con from 0.000362805 to 0.000362807
Heightened Def Con from 0.000362916 to 0.000362919
Heightened Def Con from 0.000363302 to 0.000363304
Heightened Def Con from 0.000363312 to 0.000363314
Heightened Def Con from 0.000363317 to 0.000363317
Heightened Def Con from 0.000363318 to 0.000363319
Heightened Def Con from 0.000363319 to 0.00036332
Heightened Def Con from 0.000365001 to 0.000365007
Heightened Def Con from 0.00036516 to 0.000365161
Heightened Def Con from 0.00036567 to 0.00036567
Heightened Def Con from 0.000365671 to 0.000365671
Heightened Def Con from 0.000365671 to 0.000365671
Heightened Def Con from 0.000367647 to 0.000367655
Heightened Def Con from 0.000367783 to 0.000367786
Heightened Def Con from 0.000367803 to 0.000367803
Heightened Def Con from 0.000367804 to 0.000367804
Heightened Def Con from 0.000367804 to 0.000367804
Heightened Def Con from 0.000367804 to 0.000367804
Heightened Def Con from 0.000367804 to 0.000367804
Heightened Def Con from 0.000367804 to 0.000367804
Heightened Def Con from 0.000367804 to 0.000367804
Heightened Def Con from 0.000367804 to 0.000367804
Heightened Def Con from 0.000367804 to 0.000367804
Heightened Def Con from 0.000367804 to 0.000367804
Heightened Def Con from 0.000367804 to 0.000367804
Heightened Def Con from 0.000367804 to 0.000367804
Heightened Def Con from 0.000367804 to 0.000367804
Heightened Def Con from 0.000367804 to 0.000367804
Heightened Def Con from 0.000367804 to 0.000367804
Heightened Def Con from 0.000367804 to 0.000367804
Heightened Def Con from 0.000367804 to 0.000367804
Heightened Def Con from 0.000367804 to 0.000367804
Heightened Def Con from 0.000367804 to 0.000367804
Heightened Def Con from 0.000367804 to 0.000367804
Heightened Def Con from 0.000367804 to 0.000367804
Heightened Def Con from 0.000367804 to 0.000367804
Heightened Def Con from 0.000367804 to 0.000367804
Heightened Def Con from 0.000367804 to 0.000367804
Heightened Def Con from 0.000367804 to 0.000367804
Heightened Def Con from 0.000367804 to 0.000367804
Heightened Def Con from 0.000367804 to 0.000367804
Heightened Def Con from 0.000367804 to 0.000367804
Heightened Def Con from 0.000367804 to 0.000367804
Heightened Def Con from 0.000367804 to 0.000367804
Heightened Def Con from 0.000367804 to 0.000367804
Heightened Def Con from 0.000367804 to 0.000367804
Heightened Def Con from 0.000367804 to 0.000367804
Heightened Def Con from 0.000367804 to 0.000367804
Heightened Def Con from 0.000367804 to 0.000367804
Heightened Def Con from 0.000367804 to 0.000367804
Heightened Def Con from 0.000367804 to 0.000367804
Heightened Def Con from 0.000367804 to 0.000367804
Heightened Def Con from 0.000367804 to 0.000367806
Heightened Def Con from 0.000367915 to 0.000367918
Heightened Def Con from 0.00036825 to 0.000368253
Heightened Def Con from 0.000368312 to 0.000368314
Heightened Def Con from 0.000368317 to 0.000368317
Heightened Def Con from 0.000368317 to 0.000368318
Heightened Def Con from 0.000368318 to 0.000368319
Heightened Def Con from 0.000368319 to 0.000368323
Heightened Def Con from 0.000370135 to 0.000370138
Heightened Def Con from 0.000370157 to 0.000370157
Heightened Def Con from 0.000370158 to 0.000370158
Heightened Def Con from 0.000370159 to 0.000370159
Heightened Def Con from 0.000370669 to 0.000370669
Heightened Def Con from 0.00037067 to 0.00037067
Heightened Def Con from 0.00037067 to 0.00037067
Heightened Def Con from 0.00037067 to 0.00037067
Heightened Def Con from 0.00037067 to 0.00037067
Heightened Def Con from 0.00037067 to 0.00037067
Heightened Def Con from 0.00037067 to 0.000370671
Heightened Def Con from 0.000372464 to 0.000372467
Heightened Def Con from 0.000372648 to 0.000372656
Heightened Def Con from 0.000372783 to 0.000372786
Heightened Def Con from 0.000372804 to 0.000372804
Heightened Def Con from 0.000372804 to 0.000372804
Heightened Def Con from 0.000372804 to 0.000372804
Heightened Def Con from 0.000372804 to 0.000372804
Heightened Def Con from 0.000372804 to 0.000372804
Heightened Def Con from 0.000372804 to 0.000372804
Heightened Def Con from 0.000372804 to 0.000372804
Heightened Def Con from 0.000372804 to 0.000372804
Heightened Def Con from 0.000372804 to 0.000372804
Heightened Def Con from 0.000372804 to 0.000372804
Heightened Def Con from 0.000372805 to 0.000372805
Heightened Def Con from 0.000372805 to 0.000372805
Heightened Def Con from 0.000372805 to 0.000372805
Heightened Def Con from 0.000372805 to 0.000372805
Heightened Def Con from 0.000372805 to 0.000372805
Heightened Def Con from 0.000372805 to 0.000372805
Heightened Def Con from 0.000372805 to 0.000372805
Heightened Def Con from 0.000372805 to 0.000372805
Heightened Def Con from 0.000372805 to 0.000372812
Heightened Def Con from 0.000372851 to 0.000372854
Heightened Def Con from 0.000373303 to 0.000373305
Heightened Def Con from 0.000373312 to 0.000373314
Heightened Def Con from 0.000373317 to 0.000373318
Heightened Def Con from 0.000373318 to 0.000373319
Heightened Def Con from 0.000373319 to 0.000373319
Heightened Def Con from 0.000373319 to 0.00037332
Heightened Def Con from 0.000375001 to 0.000375006
Heightened Def Con from 0.000375161 to 0.000375161
Heightened Def Con from 0.000375162 to 0.000375162
Heightened Def Con from 0.000375162 to 0.000375162
Heightened Def Con from 0.000375162 to 0.000375163
Heightened Def Con from 0.000375163 to 0.000375164
Heightened Def Con from 0.00037567 to 0.00037567
Heightened Def Con from 0.00037567 to 0.00037567
Heightened Def Con from 0.00037567 to 0.000375671
Heightened Def Con from 0.000377645 to 0.000377655
Heightened Def Con from 0.000377783 to 0.000377786
Heightened Def Con from 0.000377803 to 0.000377803
Heightened Def Con from 0.000377803 to 0.000377803
Heightened Def Con from 0.000377803 to 0.000377803
Heightened Def Con from 0.000377803 to 0.000377803
Heightened Def Con from 0.000377803 to 0.000377803
Heightened Def Con from 0.000377803 to 0.000377803
Heightened Def Con from 0.000377803 to 0.000377803
Heightened Def Con from 0.000377804 to 0.000377804
Heightened Def Con from 0.000377804 to 0.000377804
Heightened Def Con from 0.000377804 to 0.000377804
Heightened Def Con from 0.000377804 to 0.000377804
Heightened Def Con from 0.000377804 to 0.000377804
Heightened Def Con from 0.000377804 to 0.000377804
Heightened Def Con from 0.000377804 to 0.000377804
Heightened Def Con from 0.000377804 to 0.000377804
Heightened Def Con from 0.000377804 to 0.000377804
Heightened Def Con from 0.000377804 to 0.000377806
Heightened Def Con from 0.000378183 to 0.000378186
Heightened Def Con from 0.000378313 to 0.000378315
Heightened Def Con from 0.000378317 to 0.000378318
Heightened Def Con from 0.000378318 to 0.000378318
Heightened Def Con from 0.000378318 to 0.000378322
Heightened Def Con from 0.00038 to 0.000380008
Heightened Def Con from 0.000380136 to 0.000380139
Heightened Def Con from 0.000380158 to 0.000380158
Heightened Def Con from 0.00038016 to 0.00038016
Heightened Def Con from 0.000380203 to 0.000380206
Heightened Def Con from 0.000380271 to 0.000380274
Heightened Def Con from 0.000380657 to 0.000380659
Heightened Def Con from 0.00038067 to 0.00038067
Heightened Def Con from 0.00038067 to 0.00038067
Heightened Def Con from 0.00038067 to 0.00038067
Heightened Def Con from 0.00038067 to 0.000380671
Heightened Def Con from 0.000382648 to 0.000382656
Heightened Def Con from 0.000382783 to 0.000382786
Heightened Def Con from 0.000382804 to 0.000382804
Heightened Def Con from 0.000382804 to 0.000382804
Heightened Def Con from 0.000382804 to 0.000382804
Heightened Def Con from 0.000382804 to 0.000382804
Heightened Def Con from 0.000382804 to 0.000382804
Heightened Def Con from 0.000382804 to 0.000382804
Heightened Def Con from 0.000382804 to 0.000382804
Heightened Def Con from 0.000382804 to 0.000382804
Heightened Def Con from 0.000382804 to 0.000382804
Heightened Def Con from 0.000382804 to 0.000382804
Heightened Def Con from 0.000382804 to 0.000382804
Heightened Def Con from 0.000382804 to 0.000382804
Heightened Def Con from 0.000382805 to 0.000382805
Heightened Def Con from 0.000382805 to 0.000382805
Heightened Def Con from 0.000382805 +to 0.000382805
Heightened Def Con from 0.000382805 to 0.000382805
Heightened Def Con from 0.000382805 to 0.000382805
Heightened Def Con from 0.000382805 to 0.000382805
Heightened Def Con from 0.000382805 to 0.000382805
Heightened Def Con from 0.000382805 to 0.000382805
Heightened Def Con from 0.000382805 to 0.000382805
Heightened Def Con from 0.000382805 to 0.000382805
Heightened Def Con from 0.000382805 to 0.000382805
Heightened Def Con from 0.000382805 to 0.000382805
Heightened Def Con from 0.000382805 to 0.000382805
Heightened Def Con from 0.000382805 to 0.000382805
Heightened Def Con from 0.000382805 to 0.000382805
Heightened Def Con from 0.000382805 to 0.000382805
Heightened Def Con from 0.000382805 to 0.000382805
Heightened Def Con from 0.000382805 to 0.000382805
Heightened Def Con from 0.000382805 to 0.000382805
Heightened Def Con from 0.000382805 to 0.000382805
Heightened Def Con from 0.000382805 to 0.000382805
Heightened Def Con from 0.000382805 to 0.000382813
Heightened Def Con from 0.000382918 to 0.000382921
Heightened Def Con from 0.000383303 to 0.000383305
Heightened Def Con from 0.000383318 to 0.00038332
Heightened Def Con from 0.00038332 to 0.00038332
Heightened Def Con from 0.00038332 to 0.000383324
Heightened Def Con from 0.000385 to 0.000385008
Heightened Def Con from 0.000385136 to 0.000385139
Heightened Def Con from 0.000385158 to 0.000385158
Heightened Def Con from 0.000385158 to 0.000385158
Heightened Def Con from 0.000385159 to 0.00038516
Heightened Def Con from 0.00038567 to 0.00038567
Heightened Def Con from 0.00038567 to 0.00038567
Heightened Def Con from 0.00038567 to 0.000385671
Heightened Def Con from 0.000387648 to 0.000387656
Heightened Def Con from 0.000387803 to 0.000387807
Heightened Def Con from 0.000387809 to 0.000387809
Heightened Def Con from 0.000387809 to 0.000387809
Heightened Def Con from 0.000387809 to 0.000387809
Heightened Def Con from 0.000387809 to 0.000387809
Heightened Def Con from 0.000387809 to 0.000387809
Heightened Def Con from 0.000387811 to 0.000387813
Heightened Def Con from 0.000388314 to 0.000388316
Heightened Def Con from 0.000388319 to 0.00038832
Heightened Def Con from 0.00038832 to 0.00038832
Heightened Def Con from 0.00038832 to 0.000388321
Heightened Def Con from 0.00039 to 0.000390007
Heightened Def Con from 0.00039016 to 0.000390161
Heightened Def Con from 0.000390161 to 0.00039017
Heightened Def Con from 0.000390673 to 0.000390673
Heightened Def Con from 0.000390673 to 0.000390673
Heightened Def Con from 0.000390673 to 0.000390673
Heightened Def Con from 0.000390673 to 0.000390673
Heightened Def Con from 0.000390673 to 0.000390674
Heightened Def Con from 0.000392646 to 0.000392655
Heightened Def Con from 0.000392783 to 0.000392786
Heightened Def Con from 0.000392804 to 0.000392804
Heightened Def Con from 0.000392804 to 0.000392804
Heightened Def Con from 0.000392804 to 0.000392804
Heightened Def Con from 0.000392804 to 0.000392804
Heightened Def Con from 0.000392804 to 0.000392804
Heightened Def Con from 0.000392804 to 0.000392804
Heightened Def Con from 0.000392804 to 0.000392804
Heightened Def Con from 0.000392804 to 0.000392804
Heightened Def Con from 0.000392804 to 0.000392804
Heightened Def Con from 0.000392804 to 0.000392804
Heightened Def Con from 0.000392804 to 0.000392804
Heightened Def Con from 0.000392804 to 0.000392804
Heightened Def Con from 0.000392804 to 0.000392804
Heightened Def Con from 0.000392804 to 0.000392804
Heightened Def Con from 0.000392804 to 0.000392804
Heightened Def Con from 0.000392804 to 0.000392804
Heightened Def Con from 0.000392804 to 0.000392804
Heightened Def Con from 0.000392804 to 0.000392804
Heightened Def Con from 0.000392804 to 0.000392804
Heightened Def Con from 0.000392804 to 0.000392804
Heightened Def Con from 0.000392804 to 0.000392804
Heightened Def Con from 0.000392804 to 0.000392804
Heightened Def Con from 0.000392804 to 0.000392804
Heightened Def Con from 0.000392804 to 0.000392804
Heightened Def Con from 0.000392804 to 0.000392804
Heightened Def Con from 0.000392805 to 0.000392805
Heightened Def Con from 0.000392805 to 0.000392805
Heightened Def Con from 0.000392805 to 0.000392805
Heightened Def Con from 0.000392805 to 0.000392805
Heightened Def Con from 0.000392805 to 0.000392805
Heightened Def Con from 0.000392805 to 0.000392805
Heightened Def Con from 0.000392805 to 0.000392805
Heightened Def Con from 0.000392805 to 0.000392805
Heightened Def Con from 0.000392805 to 0.000392805
Heightened Def Con from 0.000392805 to 0.000392805
Heightened Def Con from 0.000392805 to 0.000392805
Heightened Def Con from 0.000392805 to 0.000392805
Heightened Def Con from 0.000392805 to 0.000392805
Heightened Def Con from 0.000392805 to 0.000392805
Heightened Def Con from 0.000392805 to 0.000392805
Heightened Def Con from 0.000392805 to 0.000392805
Heightened Def Con from 0.000392805 to 0.000392805
Heightened Def Con from 0.000392805 to 0.000392813
Heightened Def Con from 0.000392918 to 0.000392921
Heightened Def Con from 0.000393319 to 0.00039332
Heightened Def Con from 0.00039332 to 0.000393321
Heightened Def Con from 0.000393322 to 0.000393322
Heightened Def Con from 0.000393322 to 0.000393326
Heightened Def Con from 0.000395 to 0.000395008
Heightened Def Con from 0.000395154 to 0.000395154
Heightened Def Con from 0.000395155 to 0.000395155
Heightened Def Con from 0.000395156 to 0.000395156
Heightened Def Con from 0.000395156 to 0.000395156
Heightened Def Con from 0.000395156 to 0.000395157
Heightened Def Con from 0.000395157 to 0.000395166
Heightened Def Con from 0.000395404 to 0.000395407
Heightened Def Con from 0.000395671 to 0.000395671
Heightened Def Con from 0.000395671 to 0.000395671
Heightened Def Con from 0.000395671 to 0.000395672
Heightened Def Con from 0.000397647 to 0.000397656
Heightened Def Con from 0.000397783 to 0.000397786
Heightened Def Con from 0.000397804 to 0.000397804
Heightened Def Con from 0.000397804 to 0.000397804
Heightened Def Con from 0.000397804 to 0.000397804
Heightened Def Con from 0.000397804 to 0.000397804
Heightened Def Con from 0.000397804 to 0.000397804
Heightened Def Con from 0.000397804 to 0.000397804
Heightened Def Con from 0.000397805 to 0.000397805
Heightened Def Con from 0.000397805 to 0.000397805
Heightened Def Con from 0.000397805 to 0.000397805
Heightened Def Con from 0.000397805 to 0.000397805
Heightened Def Con from 0.000397805 to 0.000397805
Heightened Def Con from 0.000397805 to 0.000397805
Heightened Def Con from 0.000397805 to 0.000397812
Heightened Def Con from 0.00039792 to 0.000397923
Heightened Def Con from 0.000398256 to 0.000398259
Heightened Def Con from 0.000398308 to 0.00039831
Heightened Def Con from 0.000398322 to 0.000398323
Heightened Def Con from 0.000398323 to 0.000398324
Heightened Def Con from 0.000398324 to 0.000398324
Heightened Def Con from 0.000398324 to 0.000398324
Heightened Def Con from 0.000398324 to 0.000398325
Heightened Def Con from 0.000398325 to 0.000398329

Date: Wed Dec 04 15:30:55 2024
Total elapsed time: 79.494 seconds.

tnom = 27
temp = 27
method = modified trap
totiter = 1632692
traniter = 1632692
tranpoints = 292757
accept = 192354
rejected = 103612
matrix size = 289
fillins = 149
solver = Normal
Thread vector: 21.6/11.8[4] 10.1/5.0[4] 27.3/8.2[4] 0.8/4.3[1]  2592/500
Matrix Compiler1: 16.24 KB object code size  8.6/4.7/[1.0]
Matrix Compiler2: 21.33 KB object code size  4.0/6.6/[1.0]

