LTspice 24.0.12 for Windows
Circuit: * C:\users\Denise.Viltes\OneDrive - Toyota Argentina S.A\Documentos\dce-g5-proyecto_integrador-main\dce-g5-proyecto_integrador-main\Checkpoint 4\Buck\Buck-lazo-abierto.asc
Start Time: Sat Nov 16 22:54:37 2024
solver = Normal
Maximum thread count: 8
tnom = 27
temp = 27
method = modified trap
noOpIter = 1
Instance "m:u1:_gd_template:_ho_stage:_ho_pmos": Length shorter than recommended for a level 1 MOSFET.
Instance "m:u1:_gd_template:_ho_stage:_ho_nmos": Length shorter than recommended for a level 1 MOSFET.
Instance "m:u1:_gd_template:_lo_stage:_lo_pmos": Length shorter than recommended for a level 1 MOSFET.
Instance "m:u1:_gd_template:_lo_stage:_lo_nmos": Length shorter than recommended for a level 1 MOSFET.
Per .tran options, skipping operating point for transient analysis.
Changing Tseed to 3.90625e-11
Changing Tseed to 3.90625e-13
Changing Tseed to 3.90625e-10
Changing Tseed to 3.90625e-14
Heightened Def Con from 1.35431e-07 to 1.38431e-07
Heightened Def Con from 6.7e-07 to 6.70875e-07
Heightened Def Con from 2.64783e-06 to 2.65483e-06
Heightened Def Con from 2.80674e-06 to 2.80674e-06
Heightened Def Con from 2.80704e-06 to 2.80705e-06
Heightened Def Con from 2.80716e-06 to 2.80728e-06
Heightened Def Con from 3.31995e-06 to 3.31995e-06
Heightened Def Con from 3.32015e-06 to 3.32016e-06
Heightened Def Con from 3.32016e-06 to 3.3203e-06
Heightened Def Con from 3.3208e-06 to 3.32081e-06
Heightened Def Con from 3.32123e-06 to 3.32128e-06
Heightened Def Con from 3.32132e-06 to 3.32132e-06
Heightened Def Con from 3.32143e-06 to 3.32143e-06
Heightened Def Con from 3.37885e-06 to 3.38185e-06
Heightened Def Con from 4.77027e-06 to 4.77227e-06
Heightened Def Con from 5.00084e-06 to 5.0015e-06
Heightened Def Con from 5.00179e-06 to 5.00479e-06
Heightened Def Con from 5.15779e-06 to 5.15782e-06
Heightened Def Con from 5.15806e-06 to 5.15806e-06
Heightened Def Con from 5.15806e-06 to 5.15809e-06
Heightened Def Con from 5.15854e-06 to 5.15856e-06
Heightened Def Con from 5.15856e-06 to 5.15859e-06
Heightened Def Con from 5.15872e-06 to 5.15886e-06
Heightened Def Con from 5.15961e-06 to 5.16861e-06
Heightened Def Con from 5.20823e-06 to 5.21123e-06
Heightened Def Con from 5.65606e-06 to 5.65806e-06
Heightened Def Con from 5.66877e-06 to 5.67077e-06
Heightened Def Con from 5.67231e-06 to 5.67331e-06
Heightened Def Con from 5.67334e-06 to 5.67334e-06
Heightened Def Con from 5.67339e-06 to 5.67339e-06
Heightened Def Con from 5.67339e-06 to 5.6734e-06
Heightened Def Con from 5.6734e-06 to 5.6734e-06
Heightened Def Con from 5.6734e-06 to 5.67341e-06
Heightened Def Con from 5.67341e-06 to 5.67341e-06
Heightened Def Con from 5.67343e-06 to 5.67344e-06
Heightened Def Con from 5.67347e-06 to 5.67348e-06
Heightened Def Con from 5.67348e-06 to 5.67349e-06
Heightened Def Con from 5.67352e-06 to 5.67352e-06
Heightened Def Con from 5.67352e-06 to 5.67352e-06
Heightened Def Con from 5.67366e-06 to 5.67366e-06
Heightened Def Con from 5.67366e-06 to 5.67366e-06
Heightened Def Con from 5.67366e-06 to 5.67366e-06
Heightened Def Con from 5.67367e-06 to 5.67367e-06
Heightened Def Con from 5.6737e-06 to 5.67371e-06
Heightened Def Con from 5.67371e-06 to 5.67371e-06
Heightened Def Con from 5.67371e-06 to 5.67372e-06
Heightened Def Con from 5.6738e-06 to 5.6738e-06
Heightened Def Con from 5.67382e-06 to 5.67382e-06
Heightened Def Con from 5.67384e-06 to 5.67385e-06
Heightened Def Con from 5.67386e-06 to 5.67386e-06
Heightened Def Con from 5.67386e-06 to 5.67386e-06
Heightened Def Con from 5.67387e-06 to 5.67387e-06
Heightened Def Con from 5.67387e-06 to 5.67387e-06
Heightened Def Con from 5.67387e-06 to 5.67387e-06
Heightened Def Con from 5.67388e-06 to 5.67388e-06
Heightened Def Con from 5.67388e-06 to 5.67389e-06
Heightened Def Con from 5.67389e-06 to 5.67389e-06
Heightened Def Con from 5.67393e-06 to 5.67393e-06
Heightened Def Con from 5.67394e-06 to 5.67456e-06
Heightened Def Con from 5.67456e-06 to 5.67756e-06
Heightened Def Con from 5.71564e-06 to 5.71864e-06
Heightened Def Con from 5.72191e-06 to 5.72691e-06
Heightened Def Con from 5.77897e-06 to 5.78197e-06
Heightened Def Con from 7.2683e-06 to 7.2703e-06
Heightened Def Con from 7.52433e-06 to 7.52633e-06
Heightened Def Con from 7.58835e-06 to 7.59035e-06
Heightened Def Con from 7.64484e-06 to 7.64684e-06
Heightened Def Con from 7.64685e-06 to 7.64686e-06
Heightened Def Con from 7.64686e-06 to 7.64798e-06
Heightened Def Con from 7.64798e-06 to 7.65498e-06
Heightened Def Con from 7.8053e-06 to 7.8053e-06
Heightened Def Con from 7.8053e-06 to 7.80531e-06
Heightened Def Con from 7.80531e-06 to 7.80531e-06
Heightened Def Con from 7.80532e-06 to 7.80532e-06
Heightened Def Con from 7.80532e-06 to 7.80532e-06
Heightened Def Con from 7.80533e-06 to 7.80533e-06
Heightened Def Con from 7.80533e-06 to 7.80533e-06
Heightened Def Con from 7.80533e-06 to 7.80533e-06
Heightened Def Con from 7.80533e-06 to 7.80533e-06
Heightened Def Con from 7.80533e-06 to 7.80534e-06
Heightened Def Con from 7.80534e-06 to 7.80534e-06
Heightened Def Con from 7.80535e-06 to 7.80535e-06
Heightened Def Con from 7.80535e-06 to 7.80535e-06
Heightened Def Con from 7.80535e-06 to 7.80536e-06
Heightened Def Con from 7.80536e-06 to 7.80536e-06
Heightened Def Con from 7.80536e-06 to 7.80536e-06
Heightened Def Con from 7.80536e-06 to 7.80536e-06
Heightened Def Con from 7.80536e-06 to 7.80537e-06
Heightened Def Con from 7.80537e-06 to 7.80537e-06
Heightened Def Con from 7.80538e-06 to 7.80538e-06
Heightened Def Con from 7.80538e-06 to 7.80538e-06
Heightened Def Con from 7.80538e-06 to 7.80538e-06
Heightened Def Con from 7.80538e-06 to 7.80538e-06
Heightened Def Con from 7.80545e-06 to 7.80545e-06
Heightened Def Con from 7.80545e-06 to 7.80545e-06
Heightened Def Con from 7.80545e-06 to 7.80546e-06
Heightened Def Con from 7.80546e-06 to 7.80546e-06
Heightened Def Con from 7.80546e-06 to 7.80546e-06
Heightened Def Con from 7.80546e-06 to 7.80546e-06
Heightened Def Con from 7.80546e-06 to 7.80547e-06
Heightened Def Con from 7.80547e-06 to 7.80547e-06
Heightened Def Con from 7.80548e-06 to 7.80548e-06
Heightened Def Con from 7.80548e-06 to 7.80548e-06
Heightened Def Con from 7.80549e-06 to 7.80549e-06
Heightened Def Con from 7.80556e-06 to 7.80556e-06
Heightened Def Con from 7.80556e-06 to 7.80556e-06
Heightened Def Con from 7.80556e-06 to 7.80556e-06
Heightened Def Con from 7.80557e-06 to 7.80557e-06
Heightened Def Con from 7.80557e-06 to 7.80558e-06
Heightened Def Con from 7.80558e-06 to 7.80584e-06
Heightened Def Con from 7.80585e-06 to 7.81285e-06
Heightened Def Con from 7.99296e-06 to 7.99596e-06
Heightened Def Con from 8.12035e-06 to 8.12335e-06
Heightened Def Con from 8.29448e-06 to 8.29748e-06
Heightened Def Con from 8.32052e-06 to 8.32057e-06
Heightened Def Con from 8.32061e-06 to 8.32075e-06
Heightened Def Con from 8.32075e-06 to 8.32088e-06
Heightened Def Con from 8.32098e-06 to 8.32103e-06
Heightened Def Con from 8.32119e-06 to 8.32124e-06
Heightened Def Con from 8.32161e-06 to 8.32161e-06
Heightened Def Con from 8.32162e-06 to 8.32162e-06
Heightened Def Con from 8.32184e-06 to 8.32187e-06
Heightened Def Con from 8.32187e-06 to 8.32188e-06
Heightened Def Con from 8.32196e-06 to 8.32198e-06
Heightened Def Con from 8.32202e-06 to 8.32204e-06
Heightened Def Con from 8.32207e-06 to 8.32208e-06
Heightened Def Con from 8.32211e-06 to 8.32212e-06
Heightened Def Con from 8.32223e-06 to 8.32225e-06
Heightened Def Con from 8.32246e-06 to 8.32246e-06
Heightened Def Con from 8.32263e-06 to 8.3228e-06
Heightened Def Con from 8.32381e-06 to 8.32681e-06
Heightened Def Con from 8.32721e-06 to 8.33121e-06
Heightened Def Con from 8.33135e-06 to 8.33435e-06
Heightened Def Con from 8.40727e-06 to 8.41027e-06
Heightened Def Con from 1e-05 to 1.0008e-05
Heightened Def Con from 1.0155e-05 to 1.01556e-05
Heightened Def Con from 1.01557e-05 to 1.01557e-05
Heightened Def Con from 1.01571e-05 to 1.01573e-05
Heightened Def Con from 1.01591e-05 to 1.01651e-05
Heightened Def Con from 1.06481e-05 to 1.06501e-05
Heightened Def Con from 1.06609e-05 to 1.06629e-05
Heightened Def Con from 1.06675e-05 to 1.06685e-05
Heightened Def Con from 1.06685e-05 to 1.06685e-05
Heightened Def Con from 1.06685e-05 to 1.06685e-05
Heightened Def Con from 1.06685e-05 to 1.06685e-05
Heightened Def Con from 1.06685e-05 to 1.06685e-05
Heightened Def Con from 1.06685e-05 to 1.06685e-05
Heightened Def Con from 1.06685e-05 to 1.06685e-05
Heightened Def Con from 1.06685e-05 to 1.06685e-05
Heightened Def Con from 1.06686e-05 to 1.06686e-05
Heightened Def Con from 1.06686e-05 to 1.06686e-05
Heightened Def Con from 1.06686e-05 to 1.06686e-05
Heightened Def Con from 1.06686e-05 to 1.06686e-05
Heightened Def Con from 1.06686e-05 to 1.06686e-05
Heightened Def Con from 1.06686e-05 to 1.06686e-05
Heightened Def Con from 1.06686e-05 to 1.06686e-05
Heightened Def Con from 1.06686e-05 to 1.06686e-05
Heightened Def Con from 1.06686e-05 to 1.06686e-05
Heightened Def Con from 1.06686e-05 to 1.06686e-05
Heightened Def Con from 1.06686e-05 to 1.06686e-05
Heightened Def Con from 1.06686e-05 to 1.06686e-05
Heightened Def Con from 1.06686e-05 to 1.06686e-05
Heightened Def Con from 1.06686e-05 to 1.06686e-05
Heightened Def Con from 1.06686e-05 to 1.06686e-05
Heightened Def Con from 1.06686e-05 to 1.06686e-05
Heightened Def Con from 1.06686e-05 to 1.06686e-05
Heightened Def Con from 1.06687e-05 to 1.06687e-05
Heightened Def Con from 1.06687e-05 +to 1.06687e-05
Heightened Def Con from 1.06687e-05 to 1.06687e-05
Heightened Def Con from 1.06687e-05 to 1.06687e-05
Heightened Def Con from 1.06687e-05 to 1.06687e-05
Heightened Def Con from 1.06687e-05 to 1.06687e-05
Heightened Def Con from 1.06687e-05 to 1.06687e-05
Heightened Def Con from 1.06687e-05 to 1.06687e-05
Heightened Def Con from 1.06687e-05 to 1.06687e-05
Heightened Def Con from 1.06687e-05 to 1.06687e-05
Heightened Def Con from 1.06687e-05 to 1.06687e-05
Heightened Def Con from 1.06687e-05 to 1.06687e-05
Heightened Def Con from 1.06687e-05 to 1.06687e-05
Heightened Def Con from 1.06687e-05 to 1.06687e-05
Heightened Def Con from 1.06687e-05 to 1.06687e-05
Heightened Def Con from 1.06687e-05 to 1.06687e-05
Heightened Def Con from 1.06687e-05 to 1.06687e-05
Heightened Def Con from 1.06687e-05 to 1.06687e-05
Heightened Def Con from 1.06688e-05 to 1.06688e-05
Heightened Def Con from 1.06688e-05 to 1.06688e-05
Heightened Def Con from 1.06688e-05 to 1.06688e-05
Heightened Def Con from 1.06688e-05 to 1.06688e-05
Heightened Def Con from 1.06688e-05 to 1.06688e-05
Heightened Def Con from 1.06688e-05 to 1.06688e-05
Heightened Def Con from 1.06688e-05 to 1.06688e-05
Heightened Def Con from 1.06688e-05 to 1.06688e-05
Heightened Def Con from 1.06688e-05 to 1.06688e-05
Heightened Def Con from 1.06688e-05 to 1.06688e-05
Heightened Def Con from 1.06688e-05 to 1.06688e-05
Heightened Def Con from 1.06688e-05 to 1.06688e-05
Heightened Def Con from 1.06688e-05 to 1.06688e-05
Heightened Def Con from 1.06688e-05 to 1.06688e-05
Heightened Def Con from 1.06688e-05 to 1.06688e-05
Heightened Def Con from 1.06688e-05 to 1.06688e-05
Heightened Def Con from 1.06688e-05 to 1.06688e-05
Heightened Def Con from 1.06688e-05 to 1.06688e-05
Heightened Def Con from 1.06688e-05 to 1.06688e-05
Heightened Def Con from 1.06688e-05 to 1.06689e-05
Heightened Def Con from 1.06689e-05 to 1.06689e-05
Heightened Def Con from 1.06689e-05 to 1.06689e-05
Heightened Def Con from 1.06689e-05 to 1.06689e-05
Heightened Def Con from 1.06689e-05 to 1.06689e-05
Heightened Def Con from 1.06689e-05 to 1.06689e-05
Heightened Def Con from 1.06689e-05 to 1.06689e-05
Heightened Def Con from 1.06689e-05 to 1.06689e-05
Heightened Def Con from 1.06689e-05 to 1.06689e-05
Heightened Def Con from 1.06689e-05 to 1.06689e-05
Heightened Def Con from 1.06689e-05 to 1.06689e-05
Heightened Def Con from 1.06689e-05 to 1.06689e-05
Heightened Def Con from 1.06689e-05 to 1.06689e-05
Heightened Def Con from 1.06689e-05 to 1.06689e-05
Heightened Def Con from 1.06689e-05 to 1.06689e-05
Heightened Def Con from 1.06689e-05 to 1.06689e-05
Heightened Def Con from 1.06689e-05 to 1.06689e-05
Heightened Def Con from 1.06689e-05 to 1.06689e-05
Heightened Def Con from 1.06689e-05 to 1.06689e-05
Heightened Def Con from 1.06689e-05 to 1.0669e-05
Heightened Def Con from 1.0669e-05 to 1.0669e-05
Heightened Def Con from 1.0669e-05 to 1.0669e-05
Heightened Def Con from 1.0669e-05 to 1.0669e-05
Heightened Def Con from 1.0669e-05 to 1.0669e-05
Heightened Def Con from 1.0669e-05 to 1.0669e-05
Heightened Def Con from 1.0669e-05 to 1.0669e-05
Heightened Def Con from 1.0669e-05 to 1.0669e-05
Heightened Def Con from 1.0669e-05 to 1.0669e-05
Heightened Def Con from 1.0669e-05 to 1.0669e-05
Heightened Def Con from 1.0669e-05 +to 1.0669e-05
Heightened Def Con from 1.0669e-05 to 1.0669e-05
Heightened Def Con from 1.0669e-05 to 1.0669e-05
Heightened Def Con from 1.0669e-05 to 1.0669e-05
Heightened Def Con from 1.0669e-05 to 1.0669e-05
Heightened Def Con from 1.0669e-05 to 1.0669e-05
Heightened Def Con from 1.0669e-05 to 1.0669e-05
Heightened Def Con from 1.0669e-05 to 1.0669e-05
Heightened Def Con from 1.0669e-05 to 1.0669e-05
Heightened Def Con from 1.0669e-05 to 1.0669e-05
Heightened Def Con from 1.0669e-05 to 1.0669e-05
Heightened Def Con from 1.0669e-05 to 1.0669e-05
Heightened Def Con from 1.0669e-05 to 1.06694e-05
Heightened Def Con from 1.06694e-05 to 1.06724e-05
Heightened Def Con from 1.07164e-05 to 1.07204e-05
Heightened Def Con from 1.07765e-05 to 1.07795e-05
Heightened Def Con from 1.25787e-05 to 1.25807e-05
Heightened Def Con from 1.26385e-05 to 1.26405e-05
Heightened Def Con from 1.26425e-05 to 1.26445e-05
Heightened Def Con from 1.26446e-05 to 1.26556e-05
Heightened Def Con from 1.28026e-05 to 1.28026e-05
Heightened Def Con from 1.28026e-05 to 1.28026e-05
Heightened Def Con from 1.28026e-05 to 1.28026e-05
Heightened Def Con from 1.28026e-05 to 1.28026e-05
Heightened Def Con from 1.28026e-05 to 1.28026e-05
Heightened Def Con from 1.28026e-05 to 1.28026e-05
Heightened Def Con from 1.28026e-05 to 1.28026e-05
Heightened Def Con from 1.28026e-05 to 1.28026e-05
Heightened Def Con from 1.28026e-05 to 1.28026e-05
Heightened Def Con from 1.28026e-05 to 1.28026e-05
Heightened Def Con from 1.28026e-05 to 1.28026e-05
Heightened Def Con from 1.28026e-05 to 1.28026e-05
Heightened Def Con from 1.28026e-05 to 1.28026e-05
Heightened Def Con from 1.28026e-05 to 1.28026e-05
Heightened Def Con from 1.28026e-05 to 1.28026e-05
Heightened Def Con from 1.28026e-05 to 1.28026e-05
Heightened Def Con from 1.28027e-05 to 1.28027e-05
Heightened Def Con from 1.28028e-05 to 1.28028e-05
Heightened Def Con from 1.28028e-05 to 1.28028e-05
Heightened Def Con from 1.28028e-05 to 1.28028e-05
Heightened Def Con from 1.28029e-05 to 1.28029e-05
Heightened Def Con from 1.28029e-05 to 1.28029e-05
Heightened Def Con from 1.28029e-05 to 1.2803e-05
Heightened Def Con from 1.2803e-05 to 1.2811e-05
Heightened Def Con from 1.29924e-05 to 1.29954e-05
Heightened Def Con from 1.31042e-05 to 1.31072e-05
Heightened Def Con from 1.31189e-05 to 1.31219e-05
Heightened Def Con from 1.33185e-05 to 1.33205e-05
Heightened Def Con from 1.33208e-05 to 1.33209e-05
Heightened Def Con from 1.33209e-05 to 1.3321e-05
Heightened Def Con from 1.3321e-05 to 1.33211e-05
Heightened Def Con from 1.33214e-05 to 1.33215e-05
Heightened Def Con from 1.33215e-05 to 1.33216e-05
Heightened Def Con from 1.33216e-05 to 1.33219e-05
Heightened Def Con from 1.33224e-05 to 1.33224e-05
Heightened Def Con from 1.33224e-05 to 1.33225e-05
Heightened Def Con from 1.33225e-05 to 1.33225e-05
Heightened Def Con from 1.33226e-05 to 1.33226e-05
Heightened Def Con from 1.33226e-05 to 1.33226e-05
Heightened Def Con from 1.33231e-05 to 1.33231e-05
Heightened Def Con from 1.33231e-05 to 1.33232e-05
Heightened Def Con from 1.33232e-05 to 1.33232e-05
Heightened Def Con from 1.33232e-05 to 1.33233e-05
Heightened Def Con from 1.33233e-05 to 1.33233e-05
Heightened Def Con from 1.33233e-05 to 1.33233e-05
Heightened Def Con from 1.33234e-05 to 1.33235e-05
Heightened Def Con from 1.33235e-05 to 1.33235e-05
Heightened Def Con from 1.33235e-05 to 1.33235e-05
Heightened Def Con from 1.33236e-05 to 1.33236e-05
Heightened Def Con from 1.33236e-05 to 1.33239e-05
Heightened Def Con from 1.3324e-05 to 1.3331e-05
Heightened Def Con from 1.34034e-05 to 1.34074e-05
Heightened Def Con from 1.49586e-05 to 1.49606e-05
Heightened Def Con from 1.49981e-05 to 1.50081e-05
Heightened Def Con from 1.5156e-05 to 1.51561e-05
Heightened Def Con from 1.51567e-05 to 1.51568e-05
Heightened Def Con from 1.51571e-05 to 1.51578e-05
Heightened Def Con from 1.51582e-05 to 1.51662e-05
Heightened Def Con from 1.53526e-05 to 1.53556e-05
Heightened Def Con from 1.56481e-05 to 1.56501e-05
Heightened Def Con from 1.56608e-05 to 1.56628e-05
Heightened Def Con from 1.56674e-05 to 1.56694e-05
Heightened Def Con from 1.56694e-05 to 1.56694e-05
Heightened Def Con from 1.56694e-05 to 1.56694e-05
Heightened Def Con from 1.56695e-05 to 1.56695e-05
Heightened Def Con from 1.56695e-05 to 1.56695e-05
Heightened Def Con from 1.56695e-05 to 1.56695e-05
Heightened Def Con from 1.56695e-05 to 1.56695e-05
Heightened Def Con from 1.56695e-05 to 1.56695e-05
Heightened Def Con from 1.56695e-05 to 1.56695e-05
Heightened Def Con from 1.56695e-05 to 1.56695e-05
Heightened Def Con from 1.56695e-05 to 1.56695e-05
Heightened Def Con from 1.56695e-05 to 1.56695e-05
Heightened Def Con from 1.56695e-05 to 1.56695e-05
Heightened Def Con from 1.56695e-05 to 1.56695e-05
Heightened Def Con from 1.56696e-05 to 1.56696e-05
Heightened Def Con from 1.56696e-05 to 1.56696e-05
Heightened Def Con from 1.56696e-05 to 1.56696e-05
Heightened Def Con from 1.56696e-05 to 1.56696e-05
Heightened Def Con from 1.56696e-05 to 1.56696e-05
Heightened Def Con from 1.56696e-05 to 1.56696e-05
Heightened Def Con from 1.56696e-05 to 1.56696e-05
Heightened Def Con from 1.56696e-05 to 1.56696e-05
Heightened Def Con from 1.56696e-05 to 1.56696e-05
Heightened Def Con from 1.56696e-05 to 1.56696e-05
Heightened Def Con from 1.56696e-05 to 1.56696e-05
Heightened Def Con from 1.56696e-05 to 1.56696e-05
Heightened Def Con from 1.56696e-05 to 1.56696e-05
Heightened Def Con from 1.56696e-05 to 1.56696e-05
Heightened Def Con from 1.56696e-05 to 1.56697e-05
Heightened Def Con from 1.56697e-05 to 1.56697e-05
Heightened Def Con from 1.56697e-05 to 1.56697e-05
Heightened Def Con from 1.56697e-05 to 1.56697e-05
Heightened Def Con from 1.56697e-05 to 1.56697e-05
Heightened Def Con from 1.56697e-05 to 1.56697e-05
Heightened Def Con from 1.56697e-05 to 1.56697e-05
Heightened Def Con from 1.56697e-05 to 1.56697e-05
Heightened Def Con from 1.56697e-05 to 1.56697e-05
Heightened Def Con from 1.56697e-05 to 1.56697e-05
Heightened Def Con from 1.56697e-05 to 1.56697e-05
Heightened Def Con from 1.56697e-05 to 1.56697e-05
Heightened Def Con from 1.56697e-05 +to 1.56697e-05
Heightened Def Con from 1.56697e-05 to 1.56697e-05
Heightened Def Con from 1.56697e-05 to 1.56697e-05
Heightened Def Con from 1.56697e-05 to 1.56697e-05
Heightened Def Con from 1.56697e-05 to 1.56697e-05
Heightened Def Con from 1.56697e-05 to 1.56697e-05
Heightened Def Con from 1.56697e-05 to 1.56697e-05
Heightened Def Con from 1.56697e-05 to 1.56697e-05
Heightened Def Con from 1.56697e-05 to 1.56697e-05
Heightened Def Con from 1.56697e-05 to 1.56697e-05
Heightened Def Con from 1.56697e-05 to 1.56697e-05
Heightened Def Con from 1.56697e-05 to 1.56697e-05
Heightened Def Con from 1.56697e-05 to 1.56697e-05
Heightened Def Con from 1.56697e-05 to 1.56697e-05
Heightened Def Con from 1.56697e-05 to 1.56697e-05
Heightened Def Con from 1.56698e-05 to 1.56698e-05
Heightened Def Con from 1.56698e-05 to 1.56698e-05
Heightened Def Con from 1.56698e-05 to 1.56703e-05
Heightened Def Con from 1.56703e-05 to 1.56733e-05
Heightened Def Con from 1.57174e-05 to 1.57204e-05
Heightened Def Con from 1.57204e-05 to 1.57234e-05
Heightened Def Con from 1.5777e-05 to 1.5778e-05
Heightened Def Con from 1.5778e-05 to 1.5781e-05
Heightened Def Con from 1.76419e-05 to 1.76439e-05
Heightened Def Con from 1.7645e-05 to 1.7655e-05
Heightened Def Con from 1.78024e-05 to 1.78027e-05
Heightened Def Con from 1.78027e-05 to 1.78097e-05
Heightened Def Con from 1.79906e-05 to 1.79956e-05
Heightened Def Con from 1.81108e-05 to 1.81138e-05
Heightened Def Con from 1.81141e-05 to 1.81181e-05
Heightened Def Con from 1.83189e-05 to 1.83191e-05
Heightened Def Con from 1.83191e-05 to 1.83191e-05
Heightened Def Con from 1.83192e-05 to 1.83192e-05
Heightened Def Con from 1.83192e-05 to 1.83192e-05
Heightened Def Con from 1.83193e-05 to 1.83193e-05
Heightened Def Con from 1.83193e-05 to 1.83193e-05
Heightened Def Con from 1.83194e-05 to 1.83194e-05
Heightened Def Con from 1.83194e-05 to 1.83194e-05
Heightened Def Con from 1.83195e-05 to 1.83195e-05
Heightened Def Con from 1.83195e-05 to 1.83195e-05
Heightened Def Con from 1.83196e-05 to 1.83196e-05
Heightened Def Con from 1.83197e-05 to 1.83197e-05
Heightened Def Con from 1.83198e-05 to 1.83198e-05
Heightened Def Con from 1.83199e-05 to 1.83199e-05
Heightened Def Con from 1.83199e-05 to 1.83199e-05
Heightened Def Con from 1.83199e-05 to 1.832e-05
Heightened Def Con from 1.83201e-05 to 1.83201e-05
Heightened Def Con from 1.83201e-05 to 1.83201e-05
Heightened Def Con from 1.83201e-05 to 1.83201e-05
Heightened Def Con from 1.83201e-05 to 1.83201e-05
Heightened Def Con from 1.83202e-05 to 1.83202e-05
Heightened Def Con from 1.83203e-05 to 1.83204e-05
Heightened Def Con from 1.83204e-05 to 1.83204e-05
Heightened Def Con from 1.83204e-05 to 1.83204e-05
Heightened Def Con from 1.83205e-05 to 1.83205e-05
Heightened Def Con from 1.83205e-05 to 1.83205e-05
Heightened Def Con from 1.83206e-05 to 1.83206e-05
Heightened Def Con from 1.83206e-05 to 1.83206e-05
Heightened Def Con from 1.83206e-05 to 1.83206e-05
Heightened Def Con from 1.83208e-05 to 1.83208e-05
Heightened Def Con from 1.83208e-05 to 1.83208e-05
Heightened Def Con from 1.83208e-05 to 1.83208e-05
Heightened Def Con from 1.8321e-05 to 1.8321e-05
Heightened Def Con from 1.8321e-05 to 1.8321e-05
Heightened Def Con from 1.83212e-05 to 1.83213e-05
Heightened Def Con from 1.83213e-05 to 1.83283e-05
Heightened Def Con from 1.83288e-05 to 1.83318e-05
Heightened Def Con from 2.00009e-05 to 2.00059e-05
Heightened Def Con from 2.01555e-05 to 2.01555e-05
Heightened Def Con from 2.01556e-05 to 2.01556e-05
Heightened Def Con from 2.01564e-05 to 2.01564e-05
Heightened Def Con from 2.01568e-05 to 2.01568e-05
Heightened Def Con from 2.01573e-05 to 2.01576e-05
Heightened Def Con from 2.01576e-05 to 2.01676e-05
Heightened Def Con from 2.0349e-05 to 2.0352e-05
Heightened Def Con from 2.06612e-05 to 2.06632e-05
Heightened Def Con from 2.06678e-05 to 2.06698e-05
Heightened Def Con from 2.06698e-05 to 2.06698e-05
Heightened Def Con from 2.06698e-05 to 2.06698e-05
Heightened Def Con from 2.06698e-05 to 2.06698e-05
Heightened Def Con from 2.06698e-05 to 2.06698e-05
Heightened Def Con from 2.06699e-05 to 2.06699e-05
Heightened Def Con from 2.06699e-05 to 2.06699e-05
Heightened Def Con from 2.06699e-05 to 2.06699e-05
Heightened Def Con from 2.06699e-05 to 2.06699e-05
Heightened Def Con from 2.06699e-05 to 2.06699e-05
Heightened Def Con from 2.06699e-05 to 2.06699e-05
Heightened Def Con from 2.06699e-05 to 2.06699e-05
Heightened Def Con from 2.06699e-05 to 2.06699e-05
Heightened Def Con from 2.06699e-05 to 2.06699e-05
Heightened Def Con from 2.06699e-05 to 2.06699e-05
Heightened Def Con from 2.06699e-05 to 2.06699e-05
Heightened Def Con from 2.06699e-05 to 2.06699e-05
Heightened Def Con from 2.06699e-05 to 2.06699e-05
Heightened Def Con from 2.06699e-05 to 2.06699e-05
Heightened Def Con from 2.06699e-05 to 2.06699e-05
Heightened Def Con from 2.06699e-05 to 2.06699e-05
Heightened Def Con from 2.06699e-05 to 2.06699e-05
Heightened Def Con from 2.06699e-05 to 2.06699e-05
Heightened Def Con from 2.06699e-05 to 2.06699e-05
Heightened Def Con from 2.06699e-05 to 2.06699e-05
Heightened Def Con from 2.06699e-05 to 2.06699e-05
Heightened Def Con from 2.06699e-05 to 2.06699e-05
Heightened Def Con from 2.06699e-05 to 2.06699e-05
Heightened Def Con from 2.067e-05 to 2.067e-05
Heightened Def Con from 2.067e-05 to 2.067e-05
Heightened Def Con from 2.067e-05 to 2.067e-05
Heightened Def Con from 2.067e-05 to 2.067e-05
Heightened Def Con from 2.067e-05 to 2.067e-05
Heightened Def Con from 2.067e-05 to 2.067e-05
Heightened Def Con from 2.067e-05 to 2.067e-05
Heightened Def Con from 2.067e-05 to 2.067e-05
Heightened Def Con from 2.067e-05 to 2.067e-05
Heightened Def Con from 2.067e-05 to 2.067e-05
Heightened Def Con from 2.067e-05 to 2.067e-05
Heightened Def Con from 2.067e-05 to 2.067e-05
Heightened Def Con from 2.067e-05 to 2.067e-05
Heightened Def Con from 2.06701e-05 to 2.06701e-05
Heightened Def Con from 2.06701e-05 to 2.06701e-05
Heightened Def Con from 2.06701e-05 to 2.06701e-05
Heightened Def Con from 2.06701e-05 to 2.06701e-05
Heightened Def Con from 2.06701e-05 to 2.06701e-05
Heightened Def Con from 2.06701e-05 to 2.06701e-05
Heightened Def Con from 2.06701e-05 to 2.06701e-05
Heightened Def Con from 2.06701e-05 to 2.06701e-05
Heightened Def Con from 2.06701e-05 to 2.06701e-05
Heightened Def Con from 2.06701e-05 to 2.06701e-05
Heightened Def Con from 2.06701e-05 to 2.06701e-05
Heightened Def Con from 2.06701e-05 to 2.06701e-05
Heightened Def Con from 2.06701e-05 to 2.06701e-05
Heightened Def Con from 2.06701e-05 to 2.06701e-05
Heightened Def Con from 2.06701e-05 to 2.06701e-05
Heightened Def Con from 2.06701e-05 to 2.06701e-05
Heightened Def Con from 2.06701e-05 to 2.06701e-05
Heightened Def Con from 2.06701e-05 to 2.06701e-05
Heightened Def Con from 2.06701e-05 to 2.06701e-05
Heightened Def Con from 2.06701e-05 to 2.06701e-05
Heightened Def Con from 2.06701e-05 to 2.06701e-05
Heightened Def Con from 2.06701e-05 to 2.06701e-05
Heightened Def Con from 2.06701e-05 to 2.06702e-05
Heightened Def Con from 2.06702e-05 to 2.06702e-05
Heightened Def Con from 2.06702e-05 to 2.06702e-05
Heightened Def Con from 2.06702e-05 to 2.06702e-05
Heightened Def Con from 2.06702e-05 to 2.06702e-05
Heightened Def Con from 2.06702e-05 to 2.06702e-05
Heightened Def Con from 2.06702e-05 to 2.06702e-05
Heightened Def Con from 2.06703e-05 to 2.06703e-05
Heightened Def Con from 2.06703e-05 to 2.06703e-05
Heightened Def Con from 2.06703e-05 to 2.06703e-05
Heightened Def Con from 2.06703e-05 to 2.06703e-05
Heightened Def Con from 2.06703e-05 to 2.06703e-05
Heightened Def Con from 2.06703e-05 to 2.06703e-05
Heightened Def Con from 2.06703e-05 to 2.06703e-05
Heightened Def Con from 2.06703e-05 to 2.06703e-05
Heightened Def Con from 2.06703e-05 to 2.06703e-05
Heightened Def Con from 2.06703e-05 to 2.06703e-05
Heightened Def Con from 2.06703e-05 to 2.06703e-05
Heightened Def Con from 2.06703e-05 to 2.06703e-05
Heightened Def Con from 2.06703e-05 to 2.06703e-05
Heightened Def Con from 2.06703e-05 to 2.06703e-05
Heightened Def Con from 2.06703e-05 to 2.06703e-05
Heightened Def Con from 2.06703e-05 to 2.06703e-05
Heightened Def Con from 2.06703e-05 to 2.06703e-05
Heightened Def Con from 2.06703e-05 to 2.06704e-05
Heightened Def Con from 2.06704e-05 to 2.06704e-05
Heightened Def Con from 2.06704e-05 to 2.06704e-05
Heightened Def Con from 2.06704e-05 to 2.06704e-05
Heightened Def Con from 2.06704e-05 to 2.06704e-05
Heightened Def Con from 2.06704e-05 to 2.06704e-05
Heightened Def Con from 2.06704e-05 to 2.06704e-05
Heightened Def Con from 2.06704e-05 to 2.06709e-05
Heightened Def Con from 2.06709e-05 to 2.06739e-05
Heightened Def Con from 2.07049e-05 to 2.07079e-05
Heightened Def Con from 2.07116e-05 to 2.07146e-05
Heightened Def Con from 2.07158e-05 to 2.07188e-05
Heightened Def Con from 2.07188e-05 to 2.07208e-05
Heightened Def Con from 2.07208e-05 to 2.07238e-05
Heightened Def Con from 2.07394e-05 to 2.07394e-05
Heightened Def Con from 2.07394e-05 to 2.07414e-05
Heightened Def Con from 2.07767e-05 to 2.07798e-05
Heightened Def Con from 2.07801e-05 to 2.07803e-05
Heightened Def Con from 2.07803e-05 to 2.07833e-05
Heightened Def Con from 2.26212e-05 to 2.26232e-05
Heightened Def Con from 2.2643e-05 to 2.2645e-05
Heightened Def Con from 2.2645e-05 to 2.2655e-05
Heightened Def Con from 2.2802e-05 to 2.2802e-05
Heightened Def Con from 2.2802e-05 to 2.2802e-05
Heightened Def Con from 2.2802e-05 to 2.2802e-05
Heightened Def Con from 2.2802e-05 to 2.2802e-05
Heightened Def Con from 2.2802e-05 to 2.28021e-05
Heightened Def Con from 2.28021e-05 to 2.28021e-05
Heightened Def Con from 2.28021e-05 to 2.28021e-05
Heightened Def Con from 2.28021e-05 to 2.28021e-05
Heightened Def Con from 2.28021e-05 to 2.28021e-05
Heightened Def Con from 2.28021e-05 to 2.28021e-05
Heightened Def Con from 2.28021e-05 to 2.28021e-05
Heightened Def Con from 2.28022e-05 to 2.28022e-05
Heightened Def Con from 2.28022e-05 to 2.28022e-05
Heightened Def Con from 2.28022e-05 to 2.28022e-05
Heightened Def Con from 2.28022e-05 to 2.28022e-05
Heightened Def Con from 2.28022e-05 to 2.28022e-05
Heightened Def Con from 2.28022e-05 to 2.28022e-05
Heightened Def Con from 2.28022e-05 to 2.28022e-05
Heightened Def Con from 2.28022e-05 to 2.28022e-05
Heightened Def Con from 2.28022e-05 to 2.28022e-05
Heightened Def Con from 2.28022e-05 to 2.28022e-05
Heightened Def Con from 2.28022e-05 to 2.28022e-05
Heightened Def Con from 2.28022e-05 to 2.28023e-05
Heightened Def Con from 2.28023e-05 to 2.28023e-05
Heightened Def Con from 2.28024e-05 to 2.28025e-05
Heightened Def Con from 2.28025e-05 to 2.28095e-05
Heightened Def Con from 2.32927e-05 to 2.32957e-05
Heightened Def Con from 2.331e-05 to 2.3313e-05
Heightened Def Con from 2.33135e-05 to 2.33135e-05
Heightened Def Con from 2.33135e-05 to 2.33137e-05
Heightened Def Con from 2.33137e-05 to 2.33137e-05
Heightened Def Con from 2.33137e-05 to 2.33139e-05
Heightened Def Con from 2.3314e-05 to 2.3314e-05
Heightened Def Con from 2.33141e-05 to 2.33142e-05
Heightened Def Con from 2.33144e-05 to 2.33144e-05
Heightened Def Con from 2.33144e-05 to 2.33145e-05
Heightened Def Con from 2.33145e-05 to 2.33151e-05
Heightened Def Con from 2.33151e-05 to 2.33151e-05
Heightened Def Con from 2.33151e-05 to 2.33151e-05
Heightened Def Con from 2.33152e-05 to 2.33152e-05
Heightened Def Con from 2.33152e-05 to 2.33152e-05
Heightened Def Con from 2.33152e-05 to 2.33152e-05
Heightened Def Con from 2.33153e-05 to 2.33153e-05
Heightened Def Con from 2.33153e-05 to 2.33154e-05
Heightened Def Con from 2.33154e-05 to 2.33154e-05
Heightened Def Con from 2.33154e-05 to 2.33154e-05
Heightened Def Con from 2.33154e-05 to 2.33155e-05
Heightened Def Con from 2.33155e-05 to 2.33156e-05
Heightened Def Con from 2.33156e-05 to 2.33156e-05
Heightened Def Con from 2.33157e-05 to 2.33157e-05
Heightened Def Con from 2.33157e-05 to 2.33158e-05
Heightened Def Con from 2.33158e-05 to 2.33158e-05
Heightened Def Con from 2.33158e-05 to 2.33158e-05
Heightened Def Con from 2.33159e-05 to 2.33159e-05
Heightened Def Con from 2.33159e-05 to 2.33159e-05
Heightened Def Con from 2.33159e-05 to 2.3316e-05
Heightened Def Con from 2.33161e-05 to 2.33163e-05
Heightened Def Con from 2.33163e-05 to 2.33213e-05
Heightened Def Con from 2.33271e-05 to 2.33301e-05
Heightened Def Con from 2.34026e-05 to 2.34056e-05
Heightened Def Con from 2.51549e-05 to 2.5155e-05
Heightened Def Con from 2.5155e-05 to 2.51551e-05
Heightened Def Con from 2.51565e-05 to 2.51565e-05
Heightened Def Con from 2.51566e-05 to 2.51572e-05
Heightened Def Con from 2.5162e-05 to 2.5165e-05
Heightened Def Con from 2.56535e-05 to 2.56555e-05
Heightened Def Con from 2.56662e-05 to 2.56682e-05
Heightened Def Con from 2.56697e-05 to 2.56707e-05
Heightened Def Con from 2.56708e-05 to 2.56708e-05
Heightened Def Con from 2.56708e-05 to 2.56708e-05
Heightened Def Con from 2.56708e-05 to 2.56708e-05
Heightened Def Con from 2.56708e-05 to 2.56708e-05
Heightened Def Con from 2.56708e-05 to 2.56708e-05
Heightened Def Con from 2.56708e-05 to 2.56708e-05
Heightened Def Con from 2.56708e-05 to 2.56708e-05
Heightened Def Con from 2.56708e-05 to 2.56708e-05
Heightened Def Con from 2.56708e-05 to 2.56708e-05
Heightened Def Con from 2.56708e-05 to 2.56708e-05
Heightened Def Con from 2.56708e-05 to 2.56708e-05
Heightened Def Con from 2.56708e-05 to 2.56708e-05
Heightened Def Con from 2.56708e-05 to 2.56708e-05
Heightened Def Con from 2.56708e-05 to 2.56708e-05
Heightened Def Con from 2.56708e-05 to 2.56708e-05
Heightened Def Con from 2.56709e-05 to 2.56709e-05
Heightened Def Con from 2.56709e-05 to 2.56709e-05
Heightened Def Con from 2.56709e-05 to 2.56709e-05
Heightened Def Con from 2.56709e-05 to 2.56709e-05
Heightened Def Con from 2.56709e-05 to 2.56709e-05
Heightened Def Con from 2.56709e-05 to 2.56709e-05
Heightened Def Con from 2.5671e-05 to 2.5671e-05
Heightened Def Con from 2.5671e-05 to 2.5671e-05
Heightened Def Con from 2.5671e-05 to 2.5671e-05
Heightened Def Con from 2.5671e-05 to 2.5671e-05
Heightened Def Con from 2.5671e-05 to 2.5671e-05
Heightened Def Con from 2.5671e-05 to 2.5671e-05
Heightened Def Con from 2.5671e-05 to 2.5671e-05
Heightened Def Con from 2.56711e-05 to 2.56711e-05
Heightened Def Con from 2.56711e-05 to 2.56711e-05
Heightened Def Con from 2.56711e-05 to 2.56711e-05
Heightened Def Con from 2.56711e-05 to 2.56711e-05
Heightened Def Con from 2.56711e-05 to 2.56711e-05
Heightened Def Con from 2.56711e-05 to 2.56711e-05
Heightened Def Con from 2.56711e-05 to 2.56712e-05
Heightened Def Con from 2.56712e-05 to 2.56712e-05
Heightened Def Con from 2.56712e-05 to 2.56712e-05
Heightened Def Con from 2.56712e-05 to 2.56712e-05
Heightened Def Con from 2.56712e-05 to 2.56712e-05
Heightened Def Con from 2.56712e-05 to 2.56712e-05
Heightened Def Con from 2.56712e-05 to 2.56712e-05
Heightened Def Con from 2.56713e-05 to 2.56718e-05
Heightened Def Con from 2.56718e-05 to 2.56748e-05
Heightened Def Con from 2.57043e-05 to 2.57073e-05
Heightened Def Con from 2.57186e-05 to 2.57226e-05
Heightened Def Con from 2.57764e-05 to 2.57804e-05
Heightened Def Con from 2.75523e-05 to 2.75543e-05
Heightened Def Con from 2.76384e-05 to 2.76404e-05
Heightened Def Con from 2.76451e-05 to 2.76551e-05
Heightened Def Con from 2.7802e-05 to 2.7802e-05
Heightened Def Con from 2.7802e-05 to 2.7802e-05
Heightened Def Con from 2.7802e-05 to 2.7802e-05
Heightened Def Con from 2.78021e-05 to 2.78021e-05
Heightened Def Con from 2.78021e-05 +to 2.78021e-05
Heightened Def Con from 2.78021e-05 to 2.78021e-05
Heightened Def Con from 2.78021e-05 to 2.78021e-05
Heightened Def Con from 2.78021e-05 to 2.78021e-05
Heightened Def Con from 2.78021e-05 to 2.78021e-05
Heightened Def Con from 2.78021e-05 to 2.78021e-05
Heightened Def Con from 2.78021e-05 to 2.78021e-05
Heightened Def Con from 2.78021e-05 to 2.78021e-05
Heightened Def Con from 2.78021e-05 to 2.78021e-05
Heightened Def Con from 2.78021e-05 to 2.78022e-05
Heightened Def Con from 2.78022e-05 to 2.78022e-05
Heightened Def Con from 2.78022e-05 to 2.78022e-05
Heightened Def Con from 2.78022e-05 to 2.78022e-05
Heightened Def Con from 2.78022e-05 to 2.78022e-05
Heightened Def Con from 2.78023e-05 to 2.78023e-05
Heightened Def Con from 2.78023e-05 to 2.78023e-05
Heightened Def Con from 2.78023e-05 to 2.78023e-05
Heightened Def Con from 2.78023e-05 to 2.78023e-05
Heightened Def Con from 2.78023e-05 to 2.78023e-05
Heightened Def Con from 2.78023e-05 to 2.78023e-05
Heightened Def Con from 2.78023e-05 to 2.78023e-05
Heightened Def Con from 2.78023e-05 to 2.78023e-05
Heightened Def Con from 2.78024e-05 to 2.78027e-05
Heightened Def Con from 2.78027e-05 to 2.78097e-05
Heightened Def Con from 2.81771e-05 to 2.81801e-05
Heightened Def Con from 2.81849e-05 to 2.81879e-05
Heightened Def Con from 2.82971e-05 to 2.82991e-05
Heightened Def Con from 2.83094e-05 to 2.83114e-05
Heightened Def Con from 2.83153e-05 to 2.83173e-05
Heightened Def Con from 2.83186e-05 to 2.83197e-05
Heightened Def Con from 2.832e-05 to 2.832e-05
Heightened Def Con from 2.832e-05 to 2.83201e-05
Heightened Def Con from 2.83201e-05 to 2.83201e-05
Heightened Def Con from 2.83201e-05 to 2.83201e-05
Heightened Def Con from 2.83201e-05 to 2.83201e-05
Heightened Def Con from 2.83201e-05 to 2.83204e-05
Heightened Def Con from 2.83204e-05 to 2.83205e-05
Heightened Def Con from 2.83205e-05 to 2.83205e-05
Heightened Def Con from 2.83205e-05 to 2.83206e-05
Heightened Def Con from 2.83206e-05 to 2.83206e-05
Heightened Def Con from 2.83206e-05 to 2.83206e-05
Heightened Def Con from 2.83206e-05 to 2.83206e-05
Heightened Def Con from 2.83206e-05 to 2.83206e-05
Heightened Def Con from 2.83206e-05 to 2.83206e-05
Heightened Def Con from 2.83206e-05 to 2.83206e-05
Heightened Def Con from 2.83206e-05 to 2.8321e-05
Heightened Def Con from 2.83211e-05 to 2.83211e-05
Heightened Def Con from 2.83211e-05 to 2.83211e-05
Heightened Def Con from 2.83211e-05 to 2.83211e-05
Heightened Def Con from 2.83211e-05 to 2.83211e-05
Heightened Def Con from 2.83211e-05 to 2.83211e-05
Heightened Def Con from 2.83213e-05 to 2.83213e-05
Heightened Def Con from 2.83213e-05 to 2.83214e-05
Heightened Def Con from 2.83214e-05 to 2.83214e-05
Heightened Def Con from 2.83214e-05 to 2.83215e-05
Heightened Def Con from 2.83215e-05 to 2.83215e-05
Heightened Def Con from 2.83215e-05 to 2.83216e-05
Heightened Def Con from 2.83216e-05 to 2.83216e-05
Heightened Def Con from 2.83216e-05 to 2.83217e-05
Heightened Def Con from 2.83217e-05 to 2.83217e-05
Heightened Def Con from 2.83217e-05 to 2.83217e-05
Heightened Def Con from 2.83217e-05 to 2.83219e-05
Heightened Def Con from 2.83219e-05 to 2.83259e-05
Heightened Def Con from 2.83627e-05 to 2.83638e-05
Heightened Def Con from 3.00001e-05 to 3.00081e-05
Heightened Def Con from 3.01554e-05 to 3.01554e-05
Heightened Def Con from 3.01555e-05 to 3.01555e-05
Heightened Def Con from 3.01561e-05 to 3.01561e-05
Heightened Def Con from 3.01564e-05 to 3.01564e-05
Heightened Def Con from 3.01566e-05 to 3.01567e-05
Heightened Def Con from 3.01567e-05 to 3.01568e-05
Heightened Def Con from 3.01569e-05 to 3.01569e-05
Heightened Def Con from 3.01571e-05 to 3.01571e-05
Heightened Def Con from 3.01571e-05 to 3.01681e-05
Heightened Def Con from 3.03513e-05 to 3.03543e-05
Heightened Def Con from 3.06618e-05 to 3.06638e-05
Heightened Def Con from 3.06684e-05 to 3.06704e-05
Heightened Def Con from 3.06704e-05 to 3.06714e-05
Heightened Def Con from 3.06714e-05 to 3.06714e-05
Heightened Def Con from 3.06714e-05 to 3.06714e-05
Heightened Def Con from 3.06716e-05 to 3.06716e-05
Heightened Def Con from 3.06716e-05 to 3.06716e-05
Heightened Def Con from 3.06717e-05 to 3.06717e-05
Heightened Def Con from 3.06717e-05 to 3.06722e-05
Heightened Def Con from 3.06722e-05 to 3.06752e-05
Heightened Def Con from 3.07033e-05 to 3.07063e-05
Heightened Def Con from 3.0709e-05 to 3.0712e-05
Heightened Def Con from 3.07145e-05 to 3.07175e-05
Heightened Def Con from 3.07194e-05 to 3.07244e-05
Heightened Def Con from 3.07281e-05 to 3.07311e-05
Heightened Def Con from 3.07749e-05 to 3.07789e-05
Heightened Def Con from 3.26418e-05 to 3.26438e-05
Heightened Def Con from 3.26448e-05 to 3.26468e-05
Heightened Def Con from 3.26468e-05 to 3.26548e-05
Heightened Def Con from 3.28022e-05 to 3.28022e-05
Heightened Def Con from 3.28022e-05 to 3.28025e-05
Heightened Def Con from 3.28026e-05 to 3.28086e-05
Heightened Def Con from 3.32583e-05 to 3.32584e-05
Heightened Def Con from 3.32584e-05 to 3.32614e-05
Heightened Def Con from 3.33136e-05 to 3.33137e-05
Heightened Def Con from 3.33137e-05 to 3.33138e-05
Heightened Def Con from 3.33138e-05 to 3.3314e-05
Heightened Def Con from 3.33141e-05 to 3.33141e-05
Heightened Def Con from 3.33143e-05 to 3.33143e-05
Heightened Def Con from 3.33143e-05 to 3.33143e-05
Heightened Def Con from 3.33143e-05 to 3.33143e-05
Heightened Def Con from 3.33143e-05 to 3.33144e-05
Heightened Def Con from 3.33145e-05 to 3.33145e-05
Heightened Def Con from 3.33145e-05 to 3.33145e-05
Heightened Def Con from 3.33145e-05 to 3.33145e-05
Heightened Def Con from 3.33147e-05 to 3.33148e-05
Heightened Def Con from 3.33148e-05 to 3.33148e-05
Heightened Def Con from 3.33149e-05 to 3.3315e-05
Heightened Def Con from 3.3315e-05 to 3.3315e-05
Heightened Def Con from 3.3315e-05 to 3.3315e-05
Heightened Def Con from 3.33151e-05 to 3.33151e-05
Heightened Def Con from 3.33152e-05 to 3.33152e-05
Heightened Def Con from 3.33152e-05 to 3.33152e-05
Heightened Def Con from 3.33152e-05 to 3.33152e-05
Heightened Def Con from 3.33154e-05 to 3.33154e-05
Heightened Def Con from 3.33155e-05 to 3.33155e-05
Heightened Def Con from 3.33156e-05 to 3.33156e-05
Heightened Def Con from 3.33156e-05 to 3.33156e-05
Heightened Def Con from 3.33158e-05 to 3.33159e-05
Heightened Def Con from 3.33159e-05 to 3.33209e-05
Heightened Def Con from 3.3364e-05 to 3.3367e-05
Heightened Def Con from 3.34213e-05 to 3.34243e-05
Heightened Def Con from 3.50009e-05 to 3.50059e-05
Heightened Def Con from 3.51434e-05 to 3.51434e-05
Heightened Def Con from 3.51444e-05 to 3.51444e-05
Heightened Def Con from 3.51447e-05 to 3.51447e-05
Heightened Def Con from 3.51455e-05 to 3.51455e-05
Heightened Def Con from 3.51456e-05 to 3.51456e-05
Heightened Def Con from 3.51456e-05 to 3.51456e-05
Heightened Def Con from 3.51475e-05 to 3.51535e-05
Heightened Def Con from 3.56709e-05 to 3.56709e-05
Heightened Def Con from 3.56711e-05 to 3.56717e-05
Heightened Def Con from 3.56717e-05 to 3.56747e-05
Heightened Def Con from 3.57014e-05 to 3.57044e-05
Heightened Def Con from 3.57044e-05 to 3.57074e-05
Heightened Def Con from 3.57186e-05 to 3.57196e-05
Heightened Def Con from 3.57196e-05 to 3.57226e-05
Heightened Def Con from 3.57804e-05 to 3.57844e-05
Heightened Def Con from 3.76079e-05 to 3.76099e-05
Heightened Def Con from 3.76099e-05 to 3.76119e-05
Heightened Def Con from 3.76372e-05 to 3.76392e-05
Heightened Def Con from 3.76458e-05 to 3.76548e-05
Heightened Def Con from 3.78019e-05 to 3.78019e-05
Heightened Def Con from 3.78019e-05 to 3.7802e-05
Heightened Def Con from 3.7802e-05 to 3.7802e-05
Heightened Def Con from 3.7802e-05 to 3.7802e-05
Heightened Def Con from 3.7802e-05 to 3.7802e-05
Heightened Def Con from 3.7802e-05 to 3.7802e-05
Heightened Def Con from 3.7802e-05 to 3.7802e-05
Heightened Def Con from 3.7802e-05 to 3.7802e-05
Heightened Def Con from 3.78021e-05 to 3.78021e-05
Heightened Def Con from 3.78021e-05 to 3.78021e-05
Heightened Def Con from 3.78021e-05 to 3.78021e-05
Heightened Def Con from 3.78021e-05 to 3.78021e-05
Heightened Def Con from 3.78021e-05 to 3.78021e-05
Heightened Def Con from 3.78021e-05 to 3.78021e-05
Heightened Def Con from 3.78021e-05 to 3.78021e-05
Heightened Def Con from 3.78021e-05 to 3.78022e-05
Heightened Def Con from 3.78022e-05 to 3.78022e-05
Heightened Def Con from 3.78022e-05 to 3.78023e-05
Heightened Def Con from 3.78023e-05 to 3.78103e-05
Heightened Def Con from 3.83007e-05 to 3.83027e-05
Heightened Def Con from 3.83134e-05 to 3.83134e-05
Heightened Def Con from 3.83136e-05 to 3.83156e-05
Heightened Def Con from 3.83202e-05 to 3.83213e-05
Heightened Def Con from 3.83216e-05 to 3.83216e-05
Heightened Def Con from 3.83216e-05 to 3.83216e-05
Heightened Def Con from 3.83216e-05 to 3.83216e-05
Heightened Def Con from 3.83216e-05 to 3.83216e-05
Heightened Def Con from 3.83216e-05 to 3.83216e-05
Heightened Def Con from 3.83216e-05 to 3.8322e-05
Heightened Def Con from 3.8322e-05 to 3.8322e-05
Heightened Def Con from 3.8322e-05 to 3.8322e-05
Heightened Def Con from 3.8322e-05 to 3.8322e-05
Heightened Def Con from 3.8322e-05 to 3.8322e-05
Heightened Def Con from 3.8322e-05 to 3.8322e-05
Heightened Def Con from 3.8322e-05 to 3.8322e-05
Heightened Def Con from 3.8322e-05 to 3.8322e-05
Heightened Def Con from 3.83221e-05 to 3.83221e-05
Heightened Def Con from 3.83221e-05 to 3.83222e-05
Heightened Def Con from 3.83222e-05 to 3.83222e-05
Heightened Def Con from 3.83222e-05 to 3.83222e-05
Heightened Def Con from 3.83222e-05 to 3.83222e-05
Heightened Def Con from 3.83223e-05 to 3.83223e-05
Heightened Def Con from 3.83223e-05 to 3.83223e-05
Heightened Def Con from 3.83223e-05 to 3.83226e-05
Heightened Def Con from 3.83226e-05 to 3.83226e-05
Heightened Def Con from 3.83226e-05 to 3.83226e-05
Heightened Def Con from 3.83226e-05 to 3.83226e-05
Heightened Def Con from 3.83226e-05 to 3.83226e-05
Heightened Def Con from 3.83226e-05 to 3.83226e-05
Heightened Def Con from 3.83226e-05 to 3.83226e-05
Heightened Def Con from 3.83226e-05 to 3.83226e-05
Heightened Def Con from 3.83227e-05 to 3.83227e-05
Heightened Def Con from 3.83227e-05 to 3.83227e-05
Heightened Def Con from 3.83227e-05 to 3.83227e-05
Heightened Def Con from 3.83227e-05 to 3.8323e-05
Heightened Def Con from 3.8323e-05 to 3.8323e-05
Heightened Def Con from 3.8323e-05 to 3.8323e-05
Heightened Def Con from 3.8323e-05 to 3.8323e-05
Heightened Def Con from 3.8323e-05 to 3.8323e-05
Heightened Def Con from 3.8323e-05 to 3.8323e-05
Heightened Def Con from 3.8323e-05 to 3.8323e-05
Heightened Def Con from 3.8323e-05 to 3.8323e-05
Heightened Def Con from 3.8323e-05 to 3.8323e-05
Heightened Def Con from 3.8323e-05 to 3.8323e-05
Heightened Def Con from 3.8323e-05 to 3.8323e-05
Heightened Def Con from 3.8323e-05 to 3.8323e-05
Heightened Def Con from 3.8323e-05 to 3.8323e-05
Heightened Def Con from 3.8323e-05 to 3.8323e-05
Heightened Def Con from 3.83231e-05 to 3.83231e-05
Heightened Def Con from 3.83231e-05 to 3.83231e-05
Heightened Def Con from 3.83231e-05 to 3.83231e-05
Heightened Def Con from 3.83231e-05 to 3.83231e-05
Heightened Def Con from 3.83231e-05 to 3.83231e-05
Heightened Def Con from 3.83231e-05 to 3.83231e-05
Heightened Def Con from 3.83231e-05 to 3.83231e-05
Heightened Def Con from 3.83231e-05 to 3.83231e-05
Heightened Def Con from 3.83231e-05 to 3.83231e-05
Heightened Def Con from 3.83231e-05 to 3.83231e-05
Heightened Def Con from 3.83231e-05 to 3.83231e-05
Heightened Def Con from 3.83231e-05 to 3.83231e-05
Heightened Def Con from 3.83231e-05 to 3.83231e-05
Heightened Def Con from 3.83231e-05 to 3.83231e-05
Heightened Def Con from 3.83231e-05 to 3.83231e-05
Heightened Def Con from 3.83231e-05 to 3.83231e-05
Heightened Def Con from 3.83231e-05 to 3.83231e-05
Heightened Def Con from 3.83231e-05 to 3.83231e-05
Heightened Def Con from 3.83231e-05 to 3.83232e-05
Heightened Def Con from 3.83232e-05 to 3.83232e-05
Heightened Def Con from 3.83232e-05 to 3.83232e-05
Heightened Def Con from 3.83232e-05 to 3.83232e-05
Heightened Def Con from 3.83232e-05 to 3.83232e-05
Heightened Def Con from 3.83232e-05 to 3.83232e-05
Heightened Def Con from 3.83232e-05 to 3.83232e-05
Heightened Def Con from 3.83232e-05 to 3.83232e-05
Heightened Def Con from 3.83232e-05 to 3.83232e-05
Heightened Def Con from 3.83232e-05 to 3.83232e-05
Heightened Def Con from 3.83232e-05 to 3.83232e-05
Heightened Def Con from 3.83232e-05 to 3.83232e-05
Heightened Def Con from 3.83232e-05 to 3.83232e-05
Heightened Def Con from 3.83232e-05 to 3.83232e-05
Heightened Def Con from 3.83232e-05 to 3.83232e-05
Heightened Def Con from 3.83232e-05 to 3.83232e-05
Heightened Def Con from 3.83232e-05 to 3.83232e-05
Heightened Def Con from 3.83232e-05 to 3.83232e-05
Heightened Def Con from 3.83232e-05 to 3.83232e-05
Heightened Def Con from 3.83232e-05 to 3.83232e-05
Heightened Def Con from 3.83232e-05 to 3.83232e-05
Heightened Def Con from 3.83233e-05 to 3.83233e-05
Heightened Def Con from 3.83233e-05 to 3.83233e-05
Heightened Def Con from 3.83233e-05 to 3.83233e-05
Heightened Def Con from 3.83233e-05 to 3.83233e-05
Heightened Def Con from 3.83233e-05 to 3.83233e-05
Heightened Def Con from 3.83233e-05 to 3.83233e-05
Heightened Def Con from 3.83233e-05 to 3.83233e-05
Heightened Def Con from 3.83233e-05 to 3.83233e-05
Heightened Def Con from 3.83233e-05 to 3.83233e-05
Heightened Def Con from 3.83233e-05 to 3.83234e-05
Heightened Def Con from 3.83234e-05 to 3.83234e-05
Heightened Def Con from 3.83234e-05 to 3.83234e-05
Heightened Def Con from 3.83234e-05 to 3.83234e-05
Heightened Def Con from 3.83234e-05 to 3.83234e-05
Heightened Def Con from 3.83234e-05 to 3.83234e-05
Heightened Def Con from 3.83234e-05 to 3.83234e-05
Heightened Def Con from 3.83234e-05 to 3.83234e-05
Heightened Def Con from 3.83234e-05 to 3.83234e-05
Heightened Def Con from 3.83234e-05 to 3.83235e-05
Heightened Def Con from 3.83235e-05 to 3.83285e-05
Heightened Def Con from 3.83303e-05 to 3.83333e-05
Heightened Def Con from 3.83715e-05 to 3.83745e-05
Heightened Def Con from 3.99912e-05 to 3.99932e-05
Heightened Def Con from 3.99977e-05 to 4.00077e-05
Heightened Def Con from 4.01549e-05 to 4.01555e-05
Heightened Def Con from 4.01556e-05 to 4.01557e-05
Heightened Def Con from 4.01563e-05 to 4.01563e-05
Heightened Def Con from 4.01567e-05 to 4.01567e-05
Heightened Def Con from 4.01568e-05 to 4.01569e-05
Heightened Def Con from 4.0157e-05 to 4.0167e-05
Heightened Def Con from 4.06148e-05 to 4.06178e-05
Heightened Def Con from 4.0661e-05 to 4.0663e-05
Heightened Def Con from 4.06676e-05 to 4.06696e-05
Heightened Def Con from 4.06712e-05 to 4.06722e-05
Heightened Def Con from 4.06722e-05 to 4.06722e-05
Heightened Def Con from 4.06722e-05 to 4.06722e-05
Heightened Def Con from 4.06722e-05 to 4.06722e-05
Heightened Def Con from 4.06722e-05 to 4.06722e-05
Heightened Def Con from 4.06722e-05 to 4.06722e-05
Heightened Def Con from 4.06722e-05 to 4.06722e-05
Heightened Def Con from 4.06722e-05 to 4.06722e-05
Heightened Def Con from 4.06722e-05 to 4.06722e-05
Heightened Def Con from 4.06723e-05 to 4.06723e-05
Heightened Def Con from 4.06723e-05 to 4.06723e-05
Heightened Def Con from 4.06724e-05 +to 4.06724e-05
Heightened Def Con from 4.06724e-05 to 4.06724e-05
Heightened Def Con from 4.06724e-05 to 4.06724e-05
Heightened Def Con from 4.06724e-05 to 4.06724e-05
Heightened Def Con from 4.06724e-05 to 4.06724e-05
Heightened Def Con from 4.06724e-05 to 4.06724e-05
Heightened Def Con from 4.06724e-05 to 4.06724e-05
Heightened Def Con from 4.06724e-05 to 4.06724e-05
Heightened Def Con from 4.06724e-05 to 4.06724e-05
Heightened Def Con from 4.06724e-05 to 4.06724e-05
Heightened Def Con from 4.06724e-05 to 4.06724e-05
Heightened Def Con from 4.06724e-05 to 4.06724e-05
Heightened Def Con from 4.06724e-05 to 4.06724e-05
Heightened Def Con from 4.06724e-05 to 4.06724e-05
Heightened Def Con from 4.06724e-05 to 4.06724e-05
Heightened Def Con from 4.06724e-05 to 4.06724e-05
Heightened Def Con from 4.06724e-05 to 4.06724e-05
Heightened Def Con from 4.06724e-05 to 4.06724e-05
Heightened Def Con from 4.06724e-05 to 4.06724e-05
Heightened Def Con from 4.06724e-05 to 4.06724e-05
Heightened Def Con from 4.06725e-05 to 4.06725e-05
Heightened Def Con from 4.06725e-05 to 4.06725e-05
Heightened Def Con from 4.06725e-05 to 4.06725e-05
Heightened Def Con from 4.06725e-05 to 4.06725e-05
Heightened Def Con from 4.06725e-05 to 4.06725e-05
Heightened Def Con from 4.06725e-05 to 4.06725e-05
Heightened Def Con from 4.06726e-05 to 4.06726e-05
Heightened Def Con from 4.06726e-05 to 4.06726e-05
Heightened Def Con from 4.06726e-05 to 4.06726e-05
Heightened Def Con from 4.06726e-05 to 4.06726e-05
Heightened Def Con from 4.06726e-05 to 4.06726e-05
Heightened Def Con from 4.06726e-05 to 4.06726e-05
Heightened Def Con from 4.06726e-05 to 4.06726e-05
Heightened Def Con from 4.06726e-05 to 4.06726e-05
Heightened Def Con from 4.06726e-05 to 4.06726e-05
Heightened Def Con from 4.06727e-05 to 4.06727e-05
Heightened Def Con from 4.06727e-05 to 4.06727e-05
Heightened Def Con from 4.06727e-05 to 4.06727e-05
Heightened Def Con from 4.06727e-05 to 4.06727e-05
Heightened Def Con from 4.06727e-05 to 4.06727e-05
Heightened Def Con from 4.06727e-05 to 4.06727e-05
Heightened Def Con from 4.06727e-05 to 4.06727e-05
Heightened Def Con from 4.06727e-05 to 4.06727e-05
Heightened Def Con from 4.06728e-05 to 4.06728e-05
Heightened Def Con from 4.06728e-05 to 4.06728e-05
Heightened Def Con from 4.06728e-05 to 4.06728e-05
Heightened Def Con from 4.06728e-05 to 4.06728e-05
Heightened Def Con from 4.06728e-05 to 4.06728e-05
Heightened Def Con from 4.06728e-05 to 4.06728e-05
Heightened Def Con from 4.06728e-05 to 4.06728e-05
Heightened Def Con from 4.06728e-05 to 4.06728e-05
Heightened Def Con from 4.06728e-05 to 4.06728e-05
Heightened Def Con from 4.06728e-05 to 4.06728e-05
Heightened Def Con from 4.06728e-05 to 4.06728e-05
Heightened Def Con from 4.06728e-05 to 4.06728e-05
Heightened Def Con from 4.06728e-05 to 4.06728e-05
Heightened Def Con from 4.06728e-05 to 4.06733e-05
Heightened Def Con from 4.06733e-05 to 4.06763e-05
Heightened Def Con from 4.07211e-05 to 4.07241e-05
Heightened Def Con from 4.07252e-05 to 4.07272e-05
Heightened Def Con from 4.07272e-05 to 4.07302e-05
Heightened Def Con from 4.07785e-05 to 4.07825e-05
Heightened Def Con from 4.26453e-05 to 4.26553e-05
Heightened Def Con from 4.28026e-05 to 4.28026e-05
Heightened Def Con from 4.28026e-05 to 4.28026e-05
Heightened Def Con from 4.28026e-05 to 4.28027e-05
Heightened Def Con from 4.28027e-05 to 4.28028e-05
Heightened Def Con from 4.28028e-05 to 4.28098e-05
Heightened Def Con from 4.32923e-05 to 4.32943e-05
Heightened Def Con from 4.3305e-05 to 4.3307e-05
Heightened Def Con from 4.33116e-05 to 4.33136e-05
Heightened Def Con from 4.33152e-05 to 4.33162e-05
Heightened Def Con from 4.33162e-05 to 4.33162e-05
Heightened Def Con from 4.33162e-05 to 4.33162e-05
Heightened Def Con from 4.33162e-05 to 4.33162e-05
Heightened Def Con from 4.33162e-05 to 4.33162e-05
Heightened Def Con from 4.33162e-05 to 4.33162e-05
Heightened Def Con from 4.33162e-05 to 4.33163e-05
Heightened Def Con from 4.33163e-05 to 4.33163e-05
Heightened Def Con from 4.33163e-05 to 4.33163e-05
Heightened Def Con from 4.33163e-05 to 4.33163e-05
Heightened Def Con from 4.33163e-05 to 4.33163e-05
Heightened Def Con from 4.33163e-05 to 4.33163e-05
Heightened Def Con from 4.33163e-05 to 4.33166e-05
Heightened Def Con from 4.33166e-05 to 4.33166e-05
Heightened Def Con from 4.33166e-05 to 4.33166e-05
Heightened Def Con from 4.33166e-05 to 4.33166e-05
Heightened Def Con from 4.33166e-05 to 4.33168e-05
Heightened Def Con from 4.33169e-05 to 4.33169e-05
Heightened Def Con from 4.3317e-05 to 4.33172e-05
Heightened Def Con from 4.33172e-05 to 4.33172e-05
Heightened Def Con from 4.33172e-05 to 4.33172e-05
Heightened Def Con from 4.33172e-05 to 4.33172e-05
Heightened Def Con from 4.33172e-05 to 4.33172e-05
Heightened Def Con from 4.33172e-05 to 4.33172e-05
Heightened Def Con from 4.33172e-05 to 4.33172e-05
Heightened Def Con from 4.33172e-05 to 4.33172e-05
Heightened Def Con from 4.33172e-05 to 4.33172e-05
Heightened Def Con from 4.33172e-05 to 4.33172e-05
Heightened Def Con from 4.33172e-05 to 4.33172e-05
Heightened Def Con from 4.33172e-05 to 4.33172e-05
Heightened Def Con from 4.33172e-05 to 4.33172e-05
Heightened Def Con from 4.33172e-05 to 4.33172e-05
Heightened Def Con from 4.33172e-05 to 4.33172e-05
Heightened Def Con from 4.33172e-05 to 4.33172e-05
Heightened Def Con from 4.33173e-05 to 4.33173e-05
Heightened Def Con from 4.33173e-05 to 4.33173e-05
Heightened Def Con from 4.33173e-05 to 4.33173e-05
Heightened Def Con from 4.33173e-05 to 4.33173e-05
Heightened Def Con from 4.33173e-05 to 4.33173e-05
Heightened Def Con from 4.33173e-05 to 4.33173e-05
Heightened Def Con from 4.33173e-05 to 4.33173e-05
Heightened Def Con from 4.33173e-05 to 4.33173e-05
Heightened Def Con from 4.33173e-05 to 4.33173e-05
Heightened Def Con from 4.33173e-05 to 4.33173e-05
Heightened Def Con from 4.33173e-05 to 4.33173e-05
Heightened Def Con from 4.33173e-05 to 4.33173e-05
Heightened Def Con from 4.33173e-05 to 4.33173e-05
Heightened Def Con from 4.33174e-05 to 4.33174e-05
Heightened Def Con from 4.33174e-05 to 4.33174e-05
Heightened Def Con from 4.33174e-05 to 4.33174e-05
Heightened Def Con from 4.33174e-05 to 4.33174e-05
Heightened Def Con from 4.33174e-05 to 4.33174e-05
Heightened Def Con from 4.33174e-05 to 4.33174e-05
Heightened Def Con from 4.33174e-05 to 4.33174e-05
Heightened Def Con from 4.33174e-05 to 4.33174e-05
Heightened Def Con from 4.33174e-05 to 4.33174e-05
Heightened Def Con from 4.33174e-05 to 4.33174e-05
Heightened Def Con from 4.33174e-05 to 4.33174e-05
Heightened Def Con from 4.33174e-05 to 4.33174e-05
Heightened Def Con from 4.33174e-05 to 4.33174e-05
Heightened Def Con from 4.33174e-05 to 4.33174e-05
Heightened Def Con from 4.33174e-05 to 4.33174e-05
Heightened Def Con from 4.33175e-05 to 4.33175e-05
Heightened Def Con from 4.33175e-05 to 4.33175e-05
Heightened Def Con from 4.33175e-05 to 4.33175e-05
Heightened Def Con from 4.33175e-05 to 4.33175e-05
Heightened Def Con from 4.33175e-05 to 4.33175e-05
Heightened Def Con from 4.33175e-05 to 4.33175e-05
Heightened Def Con from 4.33175e-05 to 4.33175e-05
Heightened Def Con from 4.33175e-05 to 4.33175e-05
Heightened Def Con from 4.33175e-05 to 4.33175e-05
Heightened Def Con from 4.33175e-05 to 4.33176e-05
Heightened Def Con from 4.33176e-05 to 4.33176e-05
Heightened Def Con from 4.33176e-05 to 4.33176e-05
Heightened Def Con from 4.33176e-05 to 4.33176e-05
Heightened Def Con from 4.33176e-05 to 4.33176e-05
Heightened Def Con from 4.33176e-05 to 4.33176e-05
Heightened Def Con from 4.33176e-05 to 4.33176e-05
Heightened Def Con from 4.33176e-05 to 4.33176e-05
Heightened Def Con from 4.33176e-05 to 4.33176e-05
Heightened Def Con from 4.33176e-05 to 4.33176e-05
Heightened Def Con from 4.33176e-05 to 4.33176e-05
Heightened Def Con from 4.33176e-05 to 4.33177e-05
Heightened Def Con from 4.33177e-05 to 4.33177e-05
Heightened Def Con from 4.33177e-05 +to 4.33177e-05
Heightened Def Con from 4.33177e-05 to 4.33177e-05
Heightened Def Con from 4.33177e-05 to 4.33177e-05
Heightened Def Con from 4.33177e-05 to 4.33177e-05
Heightened Def Con from 4.33177e-05 to 4.33177e-05
Heightened Def Con from 4.33177e-05 to 4.33177e-05
Heightened Def Con from 4.33177e-05 to 4.33177e-05
Heightened Def Con from 4.33177e-05 to 4.33177e-05
Heightened Def Con from 4.33177e-05 to 4.33177e-05
Heightened Def Con from 4.33177e-05 to 4.33177e-05
Heightened Def Con from 4.33177e-05 to 4.33177e-05
Heightened Def Con from 4.33177e-05 to 4.33177e-05
Heightened Def Con from 4.33177e-05 to 4.33177e-05
Heightened Def Con from 4.33177e-05 to 4.33177e-05
Heightened Def Con from 4.33177e-05 to 4.33177e-05
Heightened Def Con from 4.33177e-05 to 4.33177e-05
Heightened Def Con from 4.33177e-05 to 4.33177e-05
Heightened Def Con from 4.33177e-05 to 4.33177e-05
Heightened Def Con from 4.33177e-05 to 4.33177e-05
Heightened Def Con from 4.33177e-05 to 4.33177e-05
Heightened Def Con from 4.33177e-05 to 4.33177e-05
Heightened Def Con from 4.33177e-05 to 4.33177e-05
Heightened Def Con from 4.33177e-05 to 4.33177e-05
Heightened Def Con from 4.33177e-05 to 4.33178e-05
Heightened Def Con from 4.33178e-05 to 4.33178e-05
Heightened Def Con from 4.33178e-05 to 4.33178e-05
Heightened Def Con from 4.33178e-05 to 4.33178e-05
Heightened Def Con from 4.33178e-05 to 4.33178e-05
Heightened Def Con from 4.33178e-05 to 4.33178e-05
Heightened Def Con from 4.33178e-05 to 4.33178e-05
Heightened Def Con from 4.33178e-05 to 4.33178e-05
Heightened Def Con from 4.33178e-05 to 4.33178e-05
Heightened Def Con from 4.33178e-05 to 4.33178e-05
Heightened Def Con from 4.33178e-05 to 4.33178e-05
Heightened Def Con from 4.33178e-05 to 4.33178e-05
Heightened Def Con from 4.33178e-05 to 4.33178e-05
Heightened Def Con from 4.33178e-05 to 4.33178e-05
Heightened Def Con from 4.33178e-05 to 4.3318e-05
Heightened Def Con from 4.3318e-05 to 4.3318e-05
Heightened Def Con from 4.3318e-05 to 4.3318e-05
Heightened Def Con from 4.3318e-05 to 4.3318e-05
Heightened Def Con from 4.3318e-05 to 4.3318e-05
Heightened Def Con from 4.3318e-05 to 4.3318e-05
Heightened Def Con from 4.3318e-05 to 4.3318e-05
Heightened Def Con from 4.3318e-05 to 4.33181e-05
Heightened Def Con from 4.33181e-05 to 4.33181e-05
Heightened Def Con from 4.33181e-05 to 4.33182e-05
Heightened Def Con from 4.33182e-05 to 4.33182e-05
Heightened Def Con from 4.33182e-05 to 4.33182e-05
Heightened Def Con from 4.33182e-05 to 4.33182e-05
Heightened Def Con from 4.33182e-05 to 4.33182e-05
Heightened Def Con from 4.33182e-05 to 4.33182e-05
Heightened Def Con from 4.33182e-05 to 4.33182e-05
Heightened Def Con from 4.33182e-05 to 4.33182e-05
Heightened Def Con from 4.33182e-05 to 4.33182e-05
Heightened Def Con from 4.33182e-05 to 4.33182e-05
Heightened Def Con from 4.33182e-05 to 4.33182e-05
Heightened Def Con from 4.33182e-05 to 4.33182e-05
Heightened Def Con from 4.33182e-05 to 4.33182e-05
Heightened Def Con from 4.33183e-05 to 4.33183e-05
Heightened Def Con from 4.33183e-05 to 4.33183e-05
Heightened Def Con from 4.33183e-05 to 4.33183e-05
Heightened Def Con from 4.33183e-05 to 4.33184e-05
Heightened Def Con from 4.33184e-05 to 4.33184e-05
Heightened Def Con from 4.33184e-05 to 4.33184e-05
Heightened Def Con from 4.33184e-05 to 4.33184e-05
Heightened Def Con from 4.33184e-05 to 4.33184e-05
Heightened Def Con from 4.33184e-05 to 4.33184e-05
Heightened Def Con from 4.33185e-05 to 4.33185e-05
Heightened Def Con from 4.33185e-05 to 4.33185e-05
Heightened Def Con from 4.33185e-05 +to 4.33185e-05
Heightened Def Con from 4.33185e-05 to 4.33185e-05
Heightened Def Con from 4.33185e-05 to 4.33185e-05
Heightened Def Con from 4.33185e-05 to 4.33185e-05
Heightened Def Con from 4.33185e-05 to 4.33185e-05
Heightened Def Con from 4.33185e-05 to 4.33185e-05
Heightened Def Con from 4.33185e-05 to 4.33185e-05
Heightened Def Con from 4.33186e-05 to 4.33186e-05
Heightened Def Con from 4.33186e-05 to 4.33186e-05
Heightened Def Con from 4.33186e-05 to 4.33186e-05
Heightened Def Con from 4.33186e-05 to 4.33186e-05
Heightened Def Con from 4.33186e-05 to 4.33186e-05
Heightened Def Con from 4.33186e-05 to 4.33186e-05
Heightened Def Con from 4.33186e-05 to 4.33186e-05
Heightened Def Con from 4.33186e-05 to 4.33186e-05
Heightened Def Con from 4.33186e-05 to 4.33186e-05
Heightened Def Con from 4.33186e-05 to 4.33186e-05
Heightened Def Con from 4.33186e-05 to 4.33186e-05
Heightened Def Con from 4.33186e-05 to 4.33186e-05
Heightened Def Con from 4.33186e-05 to 4.33187e-05
Heightened Def Con from 4.33187e-05 to 4.33187e-05
Heightened Def Con from 4.33187e-05 to 4.33187e-05
Heightened Def Con from 4.33187e-05 to 4.33187e-05
Heightened Def Con from 4.33187e-05 to 4.33187e-05
Heightened Def Con from 4.33187e-05 to 4.33187e-05
Heightened Def Con from 4.33187e-05 to 4.33187e-05
Heightened Def Con from 4.33187e-05 to 4.33187e-05
Heightened Def Con from 4.33187e-05 to 4.33187e-05
Heightened Def Con from 4.33187e-05 to 4.33187e-05
Heightened Def Con from 4.33187e-05 to 4.33187e-05
Heightened Def Con from 4.33187e-05 to 4.33188e-05
Heightened Def Con from 4.33188e-05 to 4.33188e-05
Heightened Def Con from 4.33188e-05 to 4.33188e-05
Heightened Def Con from 4.33188e-05 to 4.33188e-05
Heightened Def Con from 4.33188e-05 to 4.33188e-05
Heightened Def Con from 4.33188e-05 to 4.33188e-05
Heightened Def Con from 4.33188e-05 to 4.33188e-05
Heightened Def Con from 4.33188e-05 to 4.33188e-05
Heightened Def Con from 4.33188e-05 to 4.33189e-05
Heightened Def Con from 4.33189e-05 to 4.33239e-05
Heightened Def Con from 4.33664e-05 to 4.33714e-05
Heightened Def Con from 4.34229e-05 to 4.34259e-05
Heightened Def Con from 4.5e-05 to 4.5008e-05
Heightened Def Con from 4.51568e-05 to 4.51568e-05
Heightened Def Con from 4.5157e-05 to 4.5157e-05
Heightened Def Con from 4.51574e-05 to 4.51576e-05
Heightened Def Con from 4.51619e-05 to 4.51649e-05
Heightened Def Con from 4.53532e-05 to 4.53562e-05
Heightened Def Con from 4.55814e-05 to 4.55844e-05
Heightened Def Con from 4.56691e-05 to 4.56711e-05
Heightened Def Con from 4.56758e-05 to 4.56758e-05
Heightened Def Con from 4.56758e-05 to 4.56758e-05
Heightened Def Con from 4.56758e-05 to 4.56758e-05
Heightened Def Con from 4.56759e-05 to 4.56759e-05
Heightened Def Con from 4.56759e-05 to 4.56759e-05
Heightened Def Con from 4.56759e-05 to 4.56759e-05
Heightened Def Con from 4.56759e-05 to 4.56759e-05
Heightened Def Con from 4.56759e-05 to 4.56759e-05
Heightened Def Con from 4.56759e-05 to 4.56759e-05
Heightened Def Con from 4.5676e-05 to 4.5676e-05
Heightened Def Con from 4.5676e-05 to 4.5676e-05
Heightened Def Con from 4.5676e-05 to 4.5676e-05
Heightened Def Con from 4.5676e-05 to 4.5676e-05
Heightened Def Con from 4.56761e-05 to 4.56761e-05
Heightened Def Con from 4.56762e-05 to 4.56762e-05
Heightened Def Con from 4.56762e-05 to 4.56762e-05
Heightened Def Con from 4.56763e-05 to 4.56763e-05
Heightened Def Con from 4.56763e-05 to 4.56763e-05
Heightened Def Con from 4.56763e-05 to 4.56763e-05
Heightened Def Con from 4.56763e-05 to 4.56763e-05
Heightened Def Con from 4.56763e-05 to 4.56763e-05
Heightened Def Con from 4.56763e-05 to 4.56763e-05
Heightened Def Con from 4.56763e-05 to 4.56763e-05
Heightened Def Con from 4.56763e-05 to 4.56763e-05
Heightened Def Con from 4.56763e-05 to 4.56763e-05
Heightened Def Con from 4.56763e-05 to 4.56768e-05
Heightened Def Con from 4.56768e-05 to 4.56798e-05
Heightened Def Con from 4.57202e-05 to 4.57252e-05
Heightened Def Con from 4.57252e-05 to 4.57262e-05
Heightened Def Con from 4.57262e-05 to 4.57292e-05
Heightened Def Con from 4.57797e-05 to 4.57827e-05
Heightened Def Con from 4.7646e-05 to 4.7651e-05
Heightened Def Con from 4.7651e-05 to 4.7655e-05
Heightened Def Con from 4.78036e-05 to 4.78036e-05
Heightened Def Con from 4.78036e-05 to 4.78036e-05
Heightened Def Con from 4.78036e-05 to 4.78036e-05
Heightened Def Con from 4.78036e-05 to 4.78036e-05
Heightened Def Con from 4.78036e-05 to 4.78036e-05
Heightened Def Con from 4.78036e-05 to 4.78036e-05
Heightened Def Con from 4.78036e-05 to 4.78036e-05
Heightened Def Con from 4.78036e-05 to 4.78036e-05
Heightened Def Con from 4.78036e-05 to 4.78036e-05
Heightened Def Con from 4.78036e-05 to 4.78036e-05
Heightened Def Con from 4.78036e-05 to 4.78036e-05
Heightened Def Con from 4.78036e-05 to 4.78036e-05
Heightened Def Con from 4.78036e-05 to 4.78036e-05
Heightened Def Con from 4.78037e-05 to 4.78037e-05
Heightened Def Con from 4.78037e-05 to 4.78037e-05
Heightened Def Con from 4.78037e-05 to 4.78037e-05
Heightened Def Con from 4.78037e-05 to 4.78037e-05
Heightened Def Con from 4.78037e-05 to 4.78037e-05
Heightened Def Con from 4.78037e-05 to 4.78037e-05
Heightened Def Con from 4.78038e-05 to 4.78038e-05
Heightened Def Con from 4.78038e-05 to 4.78038e-05
Heightened Def Con from 4.78038e-05 to 4.78041e-05
Heightened Def Con from 4.78041e-05 to 4.78111e-05
Heightened Def Con from 4.82924e-05 to 4.82944e-05
Heightened Def Con from 4.83051e-05 to 4.83071e-05
Heightened Def Con from 4.83117e-05 to 4.83137e-05
Heightened Def Con from 4.83152e-05 to 4.83152e-05
Heightened Def Con from 4.83152e-05 to 4.83152e-05
Heightened Def Con from 4.83152e-05 to 4.83152e-05
Heightened Def Con from 4.83152e-05 to 4.83152e-05
Heightened Def Con from 4.83152e-05 to 4.83152e-05
Heightened Def Con from 4.83153e-05 to 4.83153e-05
Heightened Def Con from 4.83153e-05 to 4.83153e-05
Heightened Def Con from 4.83153e-05 to 4.83153e-05
Heightened Def Con from 4.83153e-05 to 4.83154e-05
Heightened Def Con from 4.83155e-05 to 4.83156e-05
Heightened Def Con from 4.83156e-05 to 4.83156e-05
Heightened Def Con from 4.83156e-05 to 4.83156e-05
Heightened Def Con from 4.83156e-05 to 4.83156e-05
Heightened Def Con from 4.83156e-05 to 4.83156e-05
Heightened Def Con from 4.83156e-05 to 4.83157e-05
Heightened Def Con from 4.83157e-05 to 4.83157e-05
Heightened Def Con from 4.83157e-05 to 4.83157e-05
Heightened Def Con from 4.83157e-05 to 4.83157e-05
Heightened Def Con from 4.83157e-05 to 4.83157e-05
Heightened Def Con from 4.83157e-05 to 4.83157e-05
Heightened Def Con from 4.83157e-05 to 4.83157e-05
Heightened Def Con from 4.83157e-05 to 4.83158e-05
Heightened Def Con from 4.83158e-05 to 4.83158e-05
Heightened Def Con from 4.83158e-05 to 4.83158e-05
Heightened Def Con from 4.83158e-05 to 4.83158e-05
Heightened Def Con from 4.83158e-05 to 4.83158e-05
Heightened Def Con from 4.83158e-05 to 4.83158e-05
Heightened Def Con from 4.83158e-05 to 4.83158e-05
Heightened Def Con from 4.83158e-05 to 4.83158e-05
Heightened Def Con from 4.83158e-05 to 4.83158e-05
Heightened Def Con from 4.83158e-05 to 4.83158e-05
Heightened Def Con from 4.83158e-05 to 4.83158e-05
Heightened Def Con from 4.83158e-05 to 4.83158e-05
Heightened Def Con from 4.83158e-05 to 4.83158e-05
Heightened Def Con from 4.83158e-05 to 4.83158e-05
Heightened Def Con from 4.83158e-05 to 4.83158e-05
Heightened Def Con from 4.83159e-05 to 4.83159e-05
Heightened Def Con from 4.83159e-05 to 4.83159e-05
Heightened Def Con from 4.83159e-05 to 4.83159e-05
Heightened Def Con from 4.83159e-05 to 4.83159e-05
Heightened Def Con from 4.83159e-05 to 4.83159e-05
Heightened Def Con from 4.83159e-05 to 4.83159e-05
Heightened Def Con from 4.83159e-05 to 4.83159e-05
Heightened Def Con from 4.83159e-05 to 4.83159e-05
Heightened Def Con from 4.83159e-05 to 4.83159e-05
Heightened Def Con from 4.83159e-05 to 4.83159e-05
Heightened Def Con from 4.83159e-05 to 4.83159e-05
Heightened Def Con from 4.83159e-05 to 4.83159e-05
Heightened Def Con from 4.83159e-05 to 4.8316e-05
Heightened Def Con from 4.8316e-05 to 4.8316e-05
Heightened Def Con from 4.8316e-05 to 4.8316e-05
Heightened Def Con from 4.8316e-05 to 4.8316e-05
Heightened Def Con from 4.8316e-05 to 4.8316e-05
Heightened Def Con from 4.8316e-05 to 4.8316e-05
Heightened Def Con from 4.8316e-05 to 4.8316e-05
Heightened Def Con from 4.8316e-05 to 4.8316e-05
Heightened Def Con from 4.8316e-05 to 4.8316e-05
Heightened Def Con from 4.8316e-05 to 4.8316e-05
Heightened Def Con from 4.8316e-05 to 4.8316e-05
Heightened Def Con from 4.8316e-05 to 4.8316e-05
Heightened Def Con from 4.8316e-05 to 4.8316e-05
Heightened Def Con from 4.8316e-05 to 4.8316e-05
Heightened Def Con from 4.8316e-05 to 4.8316e-05
Heightened Def Con from 4.8316e-05 to 4.8316e-05
Heightened Def Con from 4.8316e-05 to 4.8316e-05
Heightened Def Con from 4.8316e-05 to 4.8316e-05
Heightened Def Con from 4.83161e-05 to 4.83161e-05
Heightened Def Con from 4.83161e-05 to 4.83161e-05
Heightened Def Con from 4.83161e-05 to 4.83161e-05
Heightened Def Con from 4.83161e-05 to 4.83161e-05
Heightened Def Con from 4.83161e-05 to 4.83161e-05
Heightened Def Con from 4.83161e-05 to 4.83161e-05
Heightened Def Con from 4.83161e-05 to 4.83161e-05
Heightened Def Con from 4.83161e-05 to 4.83161e-05
Heightened Def Con from 4.83161e-05 to 4.83161e-05
Heightened Def Con from 4.83161e-05 to 4.83161e-05
Heightened Def Con from 4.83162e-05 to 4.83162e-05
Heightened Def Con from 4.83162e-05 to 4.83162e-05
Heightened Def Con from 4.83162e-05 to 4.83162e-05
Heightened Def Con from 4.83162e-05 to 4.83162e-05
Heightened Def Con from 4.83162e-05 to 4.83162e-05
Heightened Def Con from 4.83162e-05 to 4.83162e-05
Heightened Def Con from 4.83162e-05 to 4.83162e-05
Heightened Def Con from 4.83162e-05 to 4.83162e-05
Heightened Def Con from 4.83162e-05 to 4.83163e-05
Heightened Def Con from 4.83164e-05 to 4.83164e-05
Heightened Def Con from 4.83164e-05 to 4.83164e-05
Heightened Def Con from 4.83164e-05 to 4.83164e-05
Heightened Def Con from 4.83164e-05 to 4.83164e-05
Heightened Def Con from 4.83164e-05 to 4.83165e-05
Heightened Def Con from 4.83165e-05 to 4.83165e-05
Heightened Def Con from 4.83165e-05 to 4.83165e-05
Heightened Def Con from 4.83165e-05 to 4.83165e-05
Heightened Def Con from 4.83165e-05 to 4.83165e-05
Heightened Def Con from 4.83165e-05 to 4.83165e-05
Heightened Def Con from 4.83165e-05 to 4.83165e-05
Heightened Def Con from 4.83165e-05 to 4.83165e-05
Heightened Def Con from 4.83165e-05 to 4.83165e-05
Heightened Def Con from 4.83165e-05 to 4.83165e-05
Heightened Def Con from 4.83166e-05 to 4.83166e-05
Heightened Def Con from 4.83166e-05 to 4.83166e-05
Heightened Def Con from 4.83166e-05 to 4.83166e-05
Heightened Def Con from 4.83166e-05 to 4.83166e-05
Heightened Def Con from 4.83166e-05 to 4.83166e-05
Heightened Def Con from 4.83166e-05 to 4.83166e-05
Heightened Def Con from 4.83166e-05 to 4.83166e-05
Heightened Def Con from 4.83166e-05 to 4.83166e-05
Heightened Def Con from 4.83166e-05 to 4.83166e-05
Heightened Def Con from 4.83166e-05 to 4.83166e-05
Heightened Def Con from 4.83166e-05 to 4.83166e-05
Heightened Def Con from 4.83166e-05 to 4.83166e-05
Heightened Def Con from 4.83166e-05 to 4.83166e-05
Heightened Def Con from 4.83166e-05 to 4.83166e-05
Heightened Def Con from 4.83166e-05 to 4.83166e-05
Heightened Def Con from 4.83166e-05 to 4.83166e-05
Heightened Def Con from 4.83166e-05 to 4.83166e-05
Heightened Def Con from 4.83167e-05 to 4.83167e-05
Heightened Def Con from 4.83167e-05 to 4.83167e-05
Heightened Def Con from 4.83167e-05 to 4.83167e-05
Heightened Def Con from 4.83167e-05 to 4.83167e-05
Heightened Def Con from 4.83167e-05 to 4.83167e-05
Heightened Def Con from 4.83167e-05 to 4.83167e-05
Heightened Def Con from 4.83167e-05 to 4.83167e-05
Heightened Def Con from 4.83167e-05 to 4.83167e-05
Heightened Def Con from 4.83167e-05 to 4.83167e-05
Heightened Def Con from 4.83167e-05 to 4.83167e-05
Heightened Def Con from 4.83167e-05 to 4.83168e-05
Heightened Def Con from 4.83168e-05 to 4.83168e-05
Heightened Def Con from 4.83168e-05 to 4.83168e-05
Heightened Def Con from 4.83168e-05 to 4.83168e-05
Heightened Def Con from 4.83168e-05 to 4.83168e-05
Heightened Def Con from 4.83168e-05 to 4.83168e-05
Heightened Def Con from 4.83168e-05 to 4.83168e-05
Heightened Def Con from 4.83168e-05 to 4.83169e-05
Heightened Def Con from 4.83169e-05 to 4.8317e-05
Heightened Def Con from 4.8317e-05 to 4.8317e-05
Heightened Def Con from 4.8317e-05 to 4.8317e-05
Heightened Def Con from 4.8317e-05 to 4.8317e-05
Heightened Def Con from 4.83171e-05 to 4.83171e-05
Heightened Def Con from 4.83171e-05 to 4.83171e-05
Heightened Def Con from 4.83171e-05 to 4.83171e-05
Heightened Def Con from 4.83171e-05 to 4.83171e-05
Heightened Def Con from 4.83171e-05 to 4.83171e-05
Heightened Def Con from 4.83171e-05 to 4.83171e-05
Heightened Def Con from 4.83171e-05 to 4.83171e-05
Heightened Def Con from 4.83171e-05 to 4.83171e-05
Heightened Def Con from 4.83171e-05 to 4.83171e-05
Heightened Def Con from 4.83171e-05 to 4.83171e-05
Heightened Def Con from 4.83172e-05 to 4.83172e-05
Heightened Def Con from 4.83172e-05 to 4.83172e-05
Heightened Def Con from 4.83172e-05 to 4.83172e-05
Heightened Def Con from 4.83172e-05 to 4.83172e-05
Heightened Def Con from 4.83172e-05 to 4.83172e-05
Heightened Def Con from 4.83172e-05 to 4.83172e-05
Heightened Def Con from 4.83172e-05 to 4.83172e-05
Heightened Def Con from 4.83172e-05 to 4.83172e-05
Heightened Def Con from 4.83172e-05 to 4.83172e-05
Heightened Def Con from 4.83172e-05 to 4.83172e-05
Heightened Def Con from 4.83172e-05 to 4.83172e-05
Heightened Def Con from 4.83172e-05 to 4.83173e-05
Heightened Def Con from 4.83173e-05 to 4.83173e-05
Heightened Def Con from 4.83173e-05 to 4.83173e-05
Heightened Def Con from 4.83173e-05 to 4.83173e-05
Heightened Def Con from 4.83173e-05 to 4.83173e-05
Heightened Def Con from 4.83173e-05 to 4.83173e-05
Heightened Def Con from 4.83173e-05 to 4.83176e-05
Heightened Def Con from 4.83176e-05 to 4.83216e-05
Heightened Def Con from 4.83656e-05 to 4.83686e-05
Heightened Def Con from 4.99856e-05 to 4.99876e-05
Heightened Def Con from 4.99883e-05 to 4.99903e-05
Heightened Def Con from 4.99992e-05 to 5.00082e-05
Heightened Def Con from 5.01555e-05 to 5.01556e-05
Heightened Def Con from 5.01567e-05 to 5.01567e-05
Heightened Def Con from 5.01575e-05 to 5.0158e-05
Heightened Def Con from 5.01593e-05 to 5.01594e-05
Heightened Def Con from 5.01601e-05 to 5.01651e-05
Heightened Def Con from 5.05714e-05 to 5.05744e-05
Heightened Def Con from 5.05744e-05 to 5.05774e-05
Heightened Def Con from 5.06458e-05 to 5.06478e-05
Heightened Def Con from 5.06707e-05 to 5.06707e-05
Heightened Def Con from 5.06707e-05 to 5.06707e-05
Heightened Def Con from 5.06707e-05 to 5.06707e-05
Heightened Def Con from 5.06707e-05 to 5.06708e-05
Heightened Def Con from 5.06708e-05 to 5.06708e-05
Heightened Def Con from 5.06708e-05 to 5.06708e-05
Heightened Def Con from 5.06708e-05 to 5.06708e-05
Heightened Def Con from 5.06708e-05 to 5.06708e-05
Heightened Def Con from 5.06708e-05 to 5.06708e-05
Heightened Def Con from 5.06708e-05 to 5.06708e-05
Heightened Def Con from 5.0671e-05 to 5.0671e-05
Heightened Def Con from 5.0671e-05 to 5.0671e-05
Heightened Def Con from 5.0671e-05 to 5.0671e-05
Heightened Def Con from 5.0671e-05 to 5.0671e-05
Heightened Def Con from 5.0671e-05 to 5.0671e-05
Heightened Def Con from 5.0671e-05 to 5.0671e-05
Heightened Def Con from 5.0671e-05 to 5.0671e-05
Heightened Def Con from 5.0671e-05 to 5.0671e-05
Heightened Def Con from 5.0671e-05 to 5.0671e-05
Heightened Def Con from 5.0671e-05 to 5.0671e-05
Heightened Def Con from 5.0671e-05 to 5.0671e-05
Heightened Def Con from 5.0671e-05 to 5.06711e-05
Heightened Def Con from 5.06711e-05 to 5.06711e-05
Heightened Def Con from 5.06711e-05 to 5.06711e-05
Heightened Def Con from 5.06711e-05 to 5.06711e-05
Heightened Def Con from 5.06711e-05 to 5.06711e-05
Heightened Def Con from 5.06711e-05 to 5.06711e-05
Heightened Def Con from 5.06711e-05 to 5.06711e-05
Heightened Def Con from 5.06711e-05 to 5.06711e-05
Heightened Def Con from 5.06711e-05 to 5.06711e-05
Heightened Def Con from 5.06711e-05 to 5.06711e-05
Heightened Def Con from 5.06711e-05 to 5.06711e-05
Heightened Def Con from 5.06711e-05 to 5.06711e-05
Heightened Def Con from 5.06711e-05 to 5.06711e-05
Heightened Def Con from 5.06711e-05 to 5.06711e-05
Heightened Def Con from 5.06711e-05 to 5.06715e-05
Heightened Def Con from 5.06715e-05 to 5.06745e-05
Heightened Def Con from 5.07166e-05 to 5.07206e-05
Heightened Def Con from 5.07785e-05 to 5.07825e-05
Heightened Def Con from 5.25733e-05 to 5.25753e-05
Heightened Def Con from 5.26468e-05 to 5.26548e-05
Heightened Def Con from 5.28019e-05 to 5.28019e-05
Heightened Def Con from 5.28019e-05 to 5.28019e-05
Heightened Def Con from 5.28019e-05 to 5.28019e-05
Heightened Def Con from 5.28019e-05 to 5.28019e-05
Heightened Def Con from 5.28019e-05 to 5.28019e-05
Heightened Def Con from 5.28019e-05 to 5.28019e-05
Heightened Def Con from 5.28019e-05 to 5.28019e-05
Heightened Def Con from 5.28019e-05 to 5.28019e-05
Heightened Def Con from 5.28019e-05 to 5.28019e-05
Heightened Def Con from 5.28019e-05 to 5.28019e-05
Heightened Def Con from 5.28019e-05 to 5.28019e-05
Heightened Def Con from 5.2802e-05 to 5.2802e-05
Heightened Def Con from 5.2802e-05 to 5.2802e-05
Heightened Def Con from 5.2802e-05 to 5.2802e-05
Heightened Def Con from 5.2802e-05 to 5.2802e-05
Heightened Def Con from 5.2802e-05 to 5.2802e-05
Heightened Def Con from 5.2802e-05 to 5.2802e-05
Heightened Def Con from 5.2802e-05 to 5.2802e-05
Heightened Def Con from 5.2802e-05 to 5.2802e-05
Heightened Def Con from 5.2802e-05 to 5.2802e-05
Heightened Def Con from 5.2802e-05 to 5.2802e-05
Heightened Def Con from 5.2802e-05 to 5.2802e-05
Heightened Def Con from 5.2802e-05 to 5.2802e-05
Heightened Def Con from 5.2802e-05 to 5.2802e-05
Heightened Def Con from 5.28021e-05 to 5.28021e-05
Heightened Def Con from 5.28021e-05 to 5.28021e-05
Heightened Def Con from 5.28021e-05 to 5.28021e-05
Heightened Def Con from 5.28021e-05 to 5.28023e-05
Heightened Def Con from 5.28023e-05 to 5.28103e-05
Heightened Def Con from 5.31826e-05 to 5.31856e-05
Heightened Def Con from 5.32927e-05 to 5.32947e-05
Heightened Def Con from 5.33055e-05 to 5.33075e-05
Heightened Def Con from 5.33121e-05 to 5.33141e-05
Heightened Def Con from 5.33143e-05 to 5.33143e-05
Heightened Def Con from 5.33143e-05 to 5.33144e-05
Heightened Def Con from 5.33144e-05 to 5.33144e-05
Heightened Def Con from 5.33144e-05 to 5.33144e-05
Heightened Def Con from 5.33144e-05 to 5.33147e-05
Heightened Def Con from 5.33147e-05 to 5.33148e-05
Heightened Def Con from 5.33148e-05 to 5.33148e-05
Heightened Def Con from 5.33148e-05 to 5.33148e-05
Heightened Def Con from 5.33148e-05 to 5.33148e-05
Heightened Def Con from 5.33148e-05 to 5.33148e-05
Heightened Def Con from 5.33148e-05 to 5.33151e-05
Heightened Def Con from 5.33151e-05 to 5.33151e-05
Heightened Def Con from 5.33151e-05 to 5.33151e-05
[...]
Heightened Def Con from 0.000380701 to 0.000380704
Heightened Def Con from 0.000380715 to 0.000380718
Heightened Def Con from 0.000380718 to 0.000380721
Heightened Def Con from 0.000380727 to 0.00038073
Heightened Def Con from 0.000380774 to 0.000380778
Heightened Def Con from 0.000382466 to 0.000382468
Heightened Def Con from 0.000382583 to 0.000382585
Heightened Def Con from 0.000382615 to 0.000382617
Heightened Def Con from 0.000382645 to 0.000382655
Heightened Def Con from 0.000382802 to 0.000382802
Heightened Def Con from 0.000382802 to 0.000382802
Heightened Def Con from 0.000382802 to 0.000382807
Heightened Def Con from 0.000382807 to 0.00038281
Heightened Def Con from 0.000383247 to 0.00038325
Heightened Def Con from 0.00038325 to 0.000383253
Heightened Def Con from 0.000383254 to 0.000383257
Heightened Def Con from 0.000383261 to 0.000383264
Heightened Def Con from 0.000383299 to 0.000383301
Heightened Def Con from 0.000383312 to 0.000383314
Heightened Def Con from 0.000383319 to 0.000383321
Heightened Def Con from 0.000383321 to 0.000383321
Heightened Def Con from 0.000383321 to 0.000383321
Heightened Def Con from 0.000383321 to 0.000383321
Heightened Def Con from 0.000383321 to 0.000383321
Heightened Def Con from 0.000383321 to 0.000383321
Heightened Def Con from 0.000383321 to 0.000383321
Heightened Def Con from 0.000383321 to 0.000383321
Heightened Def Con from 0.000383321 to 0.000383321
Heightened Def Con from 0.000383321 to 0.000383321
Heightened Def Con from 0.000383321 to 0.000383321
Heightened Def Con from 0.000383321 to 0.000383321
Heightened Def Con from 0.000383321 to 0.000383321
Heightened Def Con from 0.000383322 to 0.000383322
Heightened Def Con from 0.000383322 to 0.000383322
Heightened Def Con from 0.000383322 to 0.000383322
Heightened Def Con from 0.000383322 to 0.000383322
Heightened Def Con from 0.000383322 to 0.000383322
Heightened Def Con from 0.000383322 to 0.000383322
Heightened Def Con from 0.000383322 to 0.000383322
Heightened Def Con from 0.000383322 to 0.000383322
Heightened Def Con from 0.000383322 to 0.000383322
Heightened Def Con from 0.000383322 to 0.000383322
Heightened Def Con from 0.000383322 to 0.000383322
Heightened Def Con from 0.000383322 to 0.000383322
Heightened Def Con from 0.000383322 to 0.000383322
Heightened Def Con from 0.000383322 to 0.000383322
Heightened Def Con from 0.000383322 to 0.000383322
Heightened Def Con from 0.000383322 to 0.000383322
Heightened Def Con from 0.000383322 to 0.000383322
Heightened Def Con from 0.000383323 to 0.000383323
Heightened Def Con from 0.000383323 to 0.000383323
Heightened Def Con from 0.000383323 to 0.000383323
Heightened Def Con from 0.000383323 to 0.000383323
Heightened Def Con from 0.000383323 to 0.000383323
Heightened Def Con from 0.000383323 to 0.000383323
Heightened Def Con from 0.000383323 to 0.000383323
Heightened Def Con from 0.000383323 to 0.000383323
Heightened Def Con from 0.000383323 to 0.000383323
Heightened Def Con from 0.000383323 to 0.000383323
Heightened Def Con from 0.000383323 to 0.000383323
Heightened Def Con from 0.000383323 to 0.000383323
Heightened Def Con from 0.000383323 to 0.000383323
Heightened Def Con from 0.000383323 to 0.000383323
Heightened Def Con from 0.000383323 to 0.000383328
Heightened Def Con from 0.000383369 to 0.00038337
Heightened Def Con from 0.00038337 to 0.000383371
Heightened Def Con from 0.000383371 to 0.000383374
Heightened Def Con from 0.000383427 to 0.00038343
Heightened Def Con from 0.000385 to 0.000385008
Heightened Def Con from 0.000385156 to 0.000385156
Heightened Def Con from 0.000385156 to 0.000385156
Heightened Def Con from 0.000385157 to 0.000385157
Heightened Def Con from 0.000385157 to 0.000385157
Heightened Def Con from 0.000385157 to 0.000385157
Heightened Def Con from 0.000385157 to 0.000385157
Heightened Def Con from 0.000385158 to 0.000385165
Heightened Def Con from 0.000385642 to 0.000385644
Heightened Def Con from 0.000385655 to 0.000385657
Heightened Def Con from 0.000385662 to 0.000385664
Heightened Def Con from 0.000385664 to 0.000385666
Heightened Def Con from 0.000385666 to 0.000385666
Heightened Def Con from 0.000385666 to 0.000385666
Heightened Def Con from 0.000385666 to 0.000385666
Heightened Def Con from 0.000385666 to 0.000385666
Heightened Def Con from 0.000385666 to 0.000385666
Heightened Def Con from 0.000385667 to 0.000385667
Heightened Def Con from 0.000385667 to 0.000385667
Heightened Def Con from 0.000385667 to 0.00038567
Heightened Def Con from 0.000385703 to 0.000385706
Heightened Def Con from 0.000385715 to 0.000385718
Heightened Def Con from 0.000385774 to 0.000385778
Heightened Def Con from 0.000387627 to 0.000387629
Heightened Def Con from 0.000387642 to 0.000387644
Heightened Def Con from 0.000387645 to 0.000387655
Heightened Def Con from 0.000387802 to 0.000387802
Heightened Def Con from 0.000387802 to 0.000387802
Heightened Def Con from 0.000387802 to 0.000387802
Heightened Def Con from 0.000387802 to 0.000387802
Heightened Def Con from 0.000387802 to 0.000387802
Heightened Def Con from 0.000387802 to 0.000387802
Heightened Def Con from 0.000387802 to 0.000387802
Heightened Def Con from 0.000387802 to 0.000387802
Heightened Def Con from 0.000387802 to 0.000387802
Heightened Def Con from 0.000387802 to 0.000387802
Heightened Def Con from 0.000387802 to 0.000387802
Heightened Def Con from 0.000387802 to 0.000387802
Heightened Def Con from 0.000387802 to 0.000387803
Heightened Def Con from 0.000387803 to 0.00038781
Heightened Def Con from 0.000387991 to 0.000387994
Heightened Def Con from 0.00038825 to 0.000388255
Heightened Def Con from 0.000388311 to 0.000388313
Heightened Def Con from 0.000388318 to 0.000388319
Heightened Def Con from 0.000388319 to 0.000388319
Heightened Def Con from 0.000388319 to 0.000388319
Heightened Def Con from 0.000388319 to 0.000388319
Heightened Def Con from 0.000388319 to 0.000388319
Heightened Def Con from 0.00038832 to 0.00038832
Heightened Def Con from 0.00038832 to 0.00038832
Heightened Def Con from 0.00038832 to 0.00038832
Heightened Def Con from 0.00038832 to 0.00038832
Heightened Def Con from 0.00038832 to 0.00038832
Heightened Def Con from 0.00038832 to 0.00038832
Heightened Def Con from 0.00038832 to 0.00038832
Heightened Def Con from 0.00038832 to 0.00038832
Heightened Def Con from 0.00038832 to 0.00038832
Heightened Def Con from 0.000388321 to 0.000388321
Heightened Def Con from 0.000388321 to 0.000388321
Heightened Def Con from 0.000388321 to 0.000388321
Heightened Def Con from 0.000388321 to 0.000388321
Heightened Def Con from 0.000388321 to 0.000388326
Heightened Def Con from 0.000388368 to 0.000388371
Heightened Def Con from 0.000388426 to 0.000388429
Heightened Def Con from 0.000389995 to 0.000389997
Heightened Def Con from 0.000390001 to 0.000390004
Heightened Def Con from 0.000390155 to 0.000390155
Heightened Def Con from 0.000390155 to 0.000390155
Heightened Def Con from 0.000390155 to 0.000390156
Heightened Def Con from 0.000390156 to 0.000390156
Heightened Def Con from 0.000390156 to 0.000390156
Heightened Def Con from 0.000390156 to 0.000390156
Heightened Def Con from 0.000390156 to 0.000390156
Heightened Def Con from 0.000390156 to 0.000390156
Heightened Def Con from 0.000390157 to 0.000390157
Heightened Def Con from 0.00039035 to 0.000390354
Heightened Def Con from 0.00039066 to 0.000390662
Heightened Def Con from 0.000390667 to 0.000390669
Heightened Def Con from 0.000390669 to 0.00039067
Heightened Def Con from 0.00039067 to 0.00039067
Heightened Def Con from 0.00039067 to 0.00039067
Heightened Def Con from 0.00039067 to 0.00039067
Heightened Def Con from 0.00039067 to 0.00039067
Heightened Def Con from 0.00039067 to 0.000390673
Heightened Def Con from 0.000390711 to 0.000390714
Heightened Def Con from 0.000390717 to 0.00039072
Heightened Def Con from 0.00039072 to 0.00039072
Heightened Def Con from 0.00039072 to 0.000390722
Heightened Def Con from 0.000390722 to 0.000390725
Heightened Def Con from 0.000390726 to 0.000390729
Heightened Def Con from 0.000390775 to 0.000390779
Heightened Def Con from 0.000390779 to 0.000390782
Heightened Def Con from 0.000392644 to 0.000392655
Heightened Def Con from 0.000392802 to 0.000392802
Heightened Def Con from 0.000392802 to 0.000392802
Heightened Def Con from 0.000392802 to 0.000392802
Heightened Def Con from 0.000392802 to 0.000392802
Heightened Def Con from 0.000392802 to 0.000392802
Heightened Def Con from 0.000392802 to 0.000392802
Heightened Def Con from 0.000392802 to 0.000392802
Heightened Def Con from 0.000392802 to 0.000392802
Heightened Def Con from 0.000392802 to 0.000392802
Heightened Def Con from 0.000392802 to 0.000392802
Heightened Def Con from 0.000392802 to 0.000392802
Heightened Def Con from 0.000392802 to 0.000392802
Heightened Def Con from 0.000392802 to 0.000392802
Heightened Def Con from 0.000392802 to 0.000392802
Heightened Def Con from 0.000392802 to 0.000392802
Heightened Def Con from 0.000392802 to 0.000392802
Heightened Def Con from 0.000392802 to 0.000392802
Heightened Def Con from 0.000392802 to 0.000392802
Heightened Def Con from 0.000392802 to 0.000392802
Heightened Def Con from 0.000392802 to 0.000392802
Heightened Def Con from 0.000392802 to 0.000392802
Heightened Def Con from 0.000392802 to 0.000392802
Heightened Def Con from 0.000392802 to 0.000392802
Heightened Def Con from 0.000392802 to 0.000392802
Heightened Def Con from 0.000392802 to 0.000392802
Heightened Def Con from 0.000392802 to 0.000392802
Heightened Def Con from 0.000392802 to 0.000392802
Heightened Def Con from 0.000392802 to 0.000392802
Heightened Def Con from 0.000392802 to 0.000392802
Heightened Def Con from 0.000392802 to 0.000392802
Heightened Def Con from 0.000392802 to 0.000392802
Heightened Def Con from 0.000392802 to 0.000392802
Heightened Def Con from 0.000392802 to 0.000392802
Heightened Def Con from 0.000392802 to 0.000392802
Heightened Def Con from 0.000392802 to 0.000392802
Heightened Def Con from 0.000392802 to 0.000392802
Heightened Def Con from 0.000392802 to 0.000392802
Heightened Def Con from 0.000392802 to 0.000392802
Heightened Def Con from 0.000392802 to 0.000392802
Heightened Def Con from 0.000392802 to 0.000392802
Heightened Def Con from 0.000392802 to 0.000392802
Heightened Def Con from 0.000392802 to 0.000392802
Heightened Def Con from 0.000392802 to 0.000392802
Heightened Def Con from 0.000392802 to 0.000392802
Heightened Def Con from 0.000392802 to 0.000392802
Heightened Def Con from 0.000392802 to 0.000392802
Heightened Def Con from 0.000392802 to 0.000392802
Heightened Def Con from 0.000392802 to 0.000392802
Heightened Def Con from 0.000392802 to 0.000392802
Heightened Def Con from 0.000392802 to 0.000392802
Heightened Def Con from 0.000392802 to 0.000392802
Heightened Def Con from 0.000392802 to 0.000392802
Heightened Def Con from 0.000392802 to 0.000392802
Heightened Def Con from 0.000392802 to 0.000392802
Heightened Def Con from 0.000392802 to 0.000392802
Heightened Def Con from 0.000392802 to 0.000392802
Heightened Def Con from 0.000392802 to 0.000392802
Heightened Def Con from 0.000392802 to 0.000392802
Heightened Def Con from 0.000392802 to 0.000392802
Heightened Def Con from 0.000392802 to 0.000392802
Heightened Def Con from 0.000392802 to 0.00039281
Heightened Def Con from 0.000393244 to 0.000393247
Heightened Def Con from 0.000393251 to 0.000393254
Heightened Def Con from 0.000393254 to 0.000393257
Heightened Def Con from 0.000393298 to 0.0003933
Heightened Def Con from 0.000393317 to 0.000393319
Heightened Def Con from 0.00039332 to 0.00039332
Heightened Def Con from 0.00039332 to 0.000393321
Heightened Def Con from 0.000393321 to 0.000393321
Heightened Def Con from 0.000393321 to 0.000393321
Heightened Def Con from 0.000393321 to 0.000393321
Heightened Def Con from 0.000393321 to 0.000393321
Heightened Def Con from 0.000393321 to 0.000393321
Heightened Def Con from 0.000393321 to 0.000393321
Heightened Def Con from 0.000393321 to 0.000393321
Heightened Def Con from 0.000393321 to 0.000393321
Heightened Def Con from 0.000393321 to 0.000393321
Heightened Def Con from 0.000393321 to 0.000393321
Heightened Def Con from 0.000393321 to 0.000393322
Heightened Def Con from 0.000393322 to 0.000393322
Heightened Def Con from 0.000393322 to 0.000393322
Heightened Def Con from 0.000393322 to 0.000393322
Heightened Def Con from 0.000393322 to 0.000393322
Heightened Def Con from 0.000393322 to 0.000393322
Heightened Def Con from 0.000393322 to 0.000393322
Heightened Def Con from 0.000393322 to 0.000393322
Heightened Def Con from 0.000393322 to 0.000393322
Heightened Def Con from 0.000393322 to 0.000393322
Heightened Def Con from 0.000393322 to 0.000393322
Heightened Def Con from 0.000393322 to 0.000393322
Heightened Def Con from 0.000393322 to 0.000393322
Heightened Def Con from 0.000393322 to 0.000393322
Heightened Def Con from 0.000393322 to 0.000393322
Heightened Def Con from 0.000393322 to 0.000393322
Heightened Def Con from 0.000393322 to 0.000393323
Heightened Def Con from 0.000393323 to 0.000393323
Heightened Def Con from 0.000393323 to 0.000393323
Heightened Def Con from 0.000393323 to 0.000393323
Heightened Def Con from 0.000393323 to 0.000393328
Heightened Def Con from 0.000393369 to 0.000393374
Heightened Def Con from 0.000393431 to 0.000393434
Heightened Def Con from 0.000394994 to 0.000394996
Heightened Def Con from 0.000395 to 0.000395002
Heightened Def Con from 0.000395002 to 0.000395007
Heightened Def Con from 0.000395161 to 0.000395161
Heightened Def Con from 0.000395161 to 0.000395161
Heightened Def Con from 0.000395161 to 0.000395162
Heightened Def Con from 0.000395162 to 0.000395172
Heightened Def Con from 0.000395661 to 0.000395663
Heightened Def Con from 0.000395667 to 0.000395668
Heightened Def Con from 0.000395669 to 0.000395669
Heightened Def Con from 0.000395669 to 0.000395669
Heightened Def Con from 0.000395669 to 0.000395669
Heightened Def Con from 0.000395669 to 0.000395669
Heightened Def Con from 0.000395669 to 0.000395669
Heightened Def Con from 0.000395669 to 0.000395669
Heightened Def Con from 0.000395669 to 0.000395669
Heightened Def Con from 0.000395669 to 0.000395669
Heightened Def Con from 0.000395669 to 0.000395669
Heightened Def Con from 0.000395669 to 0.000395669
Heightened Def Con from 0.000395669 to 0.000395669
Heightened Def Con from 0.000395669 to 0.000395669
Heightened Def Con from 0.000395669 to 0.000395669
Heightened Def Con from 0.000395669 to 0.000395669
Heightened Def Con from 0.000395669 to 0.000395669
Heightened Def Con from 0.000395669 to 0.000395669
Heightened Def Con from 0.000395669 to 0.000395674
Heightened Def Con from 0.000395714 to 0.000395717
Heightened Def Con from 0.000395717 to 0.000395719
Heightened Def Con from 0.000395719 to 0.000395722
Heightened Def Con from 0.000395775 to 0.000395776
Heightened Def Con from 0.000395776 to 0.000395779
Heightened Def Con from 0.000397258 to 0.00039726
Heightened Def Con from 0.000397639 to 0.000397641
Heightened Def Con from 0.000397643 to 0.000397645
Heightened Def Con from 0.000397645 to 0.000397655
Heightened Def Con from 0.000397781 to 0.000397785
Heightened Def Con from 0.000397803 to 0.000397803
Heightened Def Con from 0.000397803 to 0.000397803
Heightened Def Con from 0.000397803 to 0.000397803
Heightened Def Con from 0.000397803 to 0.000397803
Heightened Def Con from 0.000397803 to 0.000397803
Heightened Def Con from 0.000397803 to 0.000397803
Heightened Def Con from 0.000397803 to 0.000397803
Heightened Def Con from 0.000397803 to 0.000397803
Heightened Def Con from 0.000397803 to 0.000397803
Heightened Def Con from 0.000397803 to 0.000397803
Heightened Def Con from 0.000397803 to 0.000397803
Heightened Def Con from 0.000397803 to 0.000397803
Heightened Def Con from 0.000397803 to 0.000397803
Heightened Def Con from 0.000397803 to 0.000397803
Heightened Def Con from 0.000397803 to 0.000397803
Heightened Def Con from 0.000397803 to 0.000397803
Heightened Def Con from 0.000397803 to 0.000397803
Heightened Def Con from 0.000397803 to 0.000397803
Heightened Def Con from 0.000397803 to 0.000397803
Heightened Def Con from 0.000397803 to 0.000397803
Heightened Def Con from 0.000397803 to 0.000397803
Heightened Def Con from 0.000397803 to 0.000397803
Heightened Def Con from 0.000397803 to 0.000397803
Heightened Def Con from 0.000397803 to 0.000397803
Heightened Def Con from 0.000397803 to 0.000397803
Heightened Def Con from 0.000397803 to 0.000397803
Heightened Def Con from 0.000397804 to 0.000397804
Heightened Def Con from 0.000397804 to 0.000397804
Heightened Def Con from 0.000397804 to 0.000397804
Heightened Def Con from 0.000397804 to 0.000397804
Heightened Def Con from 0.000397804 to 0.000397804
Heightened Def Con from 0.000397804 to 0.000397804
Heightened Def Con from 0.000397804 to 0.000397804
Heightened Def Con from 0.000397804 to 0.000397804
Heightened Def Con from 0.000397804 to 0.000397804
Heightened Def Con from 0.000397804 to 0.000397804
Heightened Def Con from 0.000397804 to 0.000397804
Heightened Def Con from 0.000397804 to 0.000397804
Heightened Def Con from 0.000397804 to 0.000397804
Heightened Def Con from 0.000397804 to 0.000397804
Heightened Def Con from 0.000397804 to 0.000397804
Heightened Def Con from 0.000397804 to 0.000397804
Heightened Def Con from 0.000397804 to 0.000397804
Heightened Def Con from 0.000397804 to 0.000397804
Heightened Def Con from 0.000397804 to 0.000397804
Heightened Def Con from 0.000397804 to 0.000397804
Heightened Def Con from 0.000397804 to 0.000397804
Heightened Def Con from 0.000397804 to 0.000397804
Heightened Def Con from 0.000397804 to 0.000397804
Heightened Def Con from 0.000397804 to 0.000397804
Heightened Def Con from 0.000397804 to 0.000397804
Heightened Def Con from 0.000397804 to 0.000397804
Heightened Def Con from 0.000397804 to 0.000397804
Heightened Def Con from 0.000397804 to 0.000397804
Heightened Def Con from 0.000397804 to 0.000397812
Heightened Def Con from 0.000397987 to 0.00039799
Heightened Def Con from 0.000398254 to 0.000398257
Heightened Def Con from 0.000398303 to 0.000398305
Heightened Def Con from 0.000398316 to 0.000398318
Heightened Def Con from 0.000398321 to 0.000398321
Heightened Def Con from 0.000398321 to 0.000398321
Heightened Def Con from 0.000398321 to 0.000398321
Heightened Def Con from 0.000398322 to 0.000398322
Heightened Def Con from 0.000398322 to 0.000398322
Heightened Def Con from 0.000398322 to 0.000398322
Heightened Def Con from 0.000398322 to 0.000398322
Heightened Def Con from 0.000398322 to 0.000398322
Heightened Def Con from 0.000398322 to 0.000398322
Heightened Def Con from 0.000398322 to 0.000398322
Heightened Def Con from 0.000398322 to 0.000398322
Heightened Def Con from 0.000398322 to 0.000398322
Heightened Def Con from 0.000398322 to 0.000398322
Heightened Def Con from 0.000398322 to 0.000398322
Heightened Def Con from 0.000398322 to 0.000398322
Heightened Def Con from 0.000398322 to 0.000398322
Heightened Def Con from 0.000398323 to 0.000398323
Heightened Def Con from 0.000398323 to 0.000398323
Heightened Def Con from 0.000398323 to 0.000398323
Heightened Def Con from 0.000398323 to 0.000398323
Heightened Def Con from 0.000398323 to 0.000398323
Heightened Def Con from 0.000398323 to 0.000398323
Heightened Def Con from 0.000398323 to 0.000398323
Heightened Def Con from 0.000398323 to 0.000398323
Heightened Def Con from 0.000398323 to 0.000398323
Heightened Def Con from 0.000398323 to 0.000398323
Heightened Def Con from 0.000398323 to 0.000398323
Heightened Def Con from 0.000398323 to 0.000398323
Heightened Def Con from 0.000398323 to 0.000398323
Heightened Def Con from 0.000398323 to 0.000398328
Heightened Def Con from 0.00039837 to 0.000398373
Heightened Def Con from 0.000398432 to 0.000398435
Heightened Def Con from 0.000399912 to 0.000399914
Heightened Def Con from 0.000399997 to 0.000399999


Measurement "vo" FAIL'ed

Measurement "il" FAIL'ed

Total elapsed time: 74.792 seconds.

