Circuit: * C:\Users\---\Desktop\DCE\dce-g5-proyecto_integrador\Checkpoint 5\Buck_lazo_cerrado\Buck-lazo-cerrado.asc

WARNING: Less than two connections to node -VCC3.  This node is used by V10.
Instance "m:u7:_gd_template:_lo_stage:_lo_nmos": Length shorter than recommended for a level 1 MOSFET.
Instance "m:u7:_gd_template:_lo_stage:_lo_pmos": Length shorter than recommended for a level 1 MOSFET.
Instance "m:u7:_gd_template:_ho_stage:_ho_nmos": Length shorter than recommended for a level 1 MOSFET.
Instance "m:u7:_gd_template:_ho_stage:_ho_pmos": Length shorter than recommended for a level 1 MOSFET.
Direct Newton iteration for .op point skipped.
Starting Gmin stepping
Gmin = 10
vernier = 0.5
vernier = 0.25
vernier = 0.125
Gmin = 5.49741
vernier = 0.0625
vernier = 0.03125
vernier = 0.015625
vernier = 0.0078125
Gmin = 5.43357
vernier = 0.00390625
vernier = 0.00195313
vernier = 0.000976563
vernier = 0.000488281
Gmin = 5.42761
Gmin = 0
Gmin stepping failed

Starting source stepping with srcstepmethod=0
Source Step = 3.0303%
Source Step = 33.3333%
Source Step = 50.1894%
vernier = 0.015625
Source Step = 50.0237%
Starting source stepping with srcstepmethod=1
Source Step = 3.0303%
Source Step = 33.3333%
Source Step = 50.1894%
vernier = 0.015625
Source stepping failed

Pseudo Transient failed in finding the operating point at 5.00977 µs.
Trouble finding operating point....skipping operating point for Transient analysis.
Changing Tseed to 2.44141e-010
Changing Tseed to 2.44141e-012
Changing Tseed to 2.44141e-009
Changing Tseed to 2.44141e-013
Changing Tseed to 2.44141e-008
Changing Tseed to 2.44141e-014
to 2.74658e-014
Heightened Def Con from 3.84975e-011 to 2.2885e-009
Heightened Def Con from 1.39075e-008 to 1.69075e-008
Heightened Def Con from 1.77185e-008 to 2.07185e-008
Heightened Def Con from 3.37919e-008 to 3.67919e-008
Heightened Def Con from 6.90753e-008 to 7.20753e-008
Heightened Def Con from 1.118e-007 to 1.148e-007
Heightened Def Con from 1.42906e-007 to 1.45906e-007
Heightened Def Con from 6.72439e-007 to 6.72443e-007
Heightened Def Con from 6.72447e-007 to 6.72451e-007
Heightened Def Con from 6.7251e-007 to 6.72512e-007
Heightened Def Con from 6.73262e-007 to 6.73264e-007
Heightened Def Con from 6.73266e-007 to 6.73268e-007
Heightened Def Con from 6.73268e-007 to 6.73271e-007
Heightened Def Con from 6.73275e-007 to 6.73277e-007
Heightened Def Con from 6.73277e-007 to 6.73277e-007
Heightened Def Con from 6.73277e-007 to 6.73278e-007
Heightened Def Con from 6.73278e-007 to 6.73278e-007
Heightened Def Con from 6.73288e-007 to 6.73288e-007
Heightened Def Con from 6.73312e-007 to 6.73314e-007
Heightened Def Con from 6.73314e-007 to 6.73314e-007
Heightened Def Con from 6.73314e-007 to 6.73315e-007
Heightened Def Con from 6.73317e-007 to 6.73318e-007
Heightened Def Con from 6.73318e-007 to 6.73322e-007
Heightened Def Con from 6.73326e-007 to 6.7333e-007
Heightened Def Con from 6.7333e-007 to 6.7333e-007
Heightened Def Con from 6.7333e-007 to 6.73331e-007
Heightened Def Con from 6.73331e-007 to 6.73335e-007
Heightened Def Con from 6.73342e-007 to 6.73346e-007
Heightened Def Con from 6.73413e-007 to 6.73414e-007
Heightened Def Con from 6.73415e-007 to 6.73417e-007
Heightened Def Con from 6.73422e-007 to 6.73427e-007
Heightened Def Con from 6.73475e-007 to 6.73479e-007
Heightened Def Con from 6.7348e-007 to 6.73481e-007
Heightened Def Con from 6.73484e-007 to 6.74359e-007
Heightened Def Con from 1.1498e-006 to 1.1538e-006
Heightened Def Con from 3.2846e-006 to 3.2876e-006
Heightened Def Con from 4.00695e-006 to 4.00709e-006
Heightened Def Con from 4.00709e-006 to 4.00884e-006
Heightened Def Con from 4.15807e-006 to 4.15907e-006
Heightened Def Con from 4.15907e-006 to 4.15908e-006
Heightened Def Con from 4.15909e-006 to 4.15909e-006
Heightened Def Con from 4.15909e-006 to 4.15909e-006
Heightened Def Con from 4.1591e-006 to 4.1591e-006
Heightened Def Con from 4.15911e-006 to 4.15911e-006
Heightened Def Con from 4.15911e-006 to 4.15911e-006
Heightened Def Con from 4.15911e-006 to 4.15911e-006
Heightened Def Con from 4.15911e-006 to 4.15911e-006
Heightened Def Con from 4.15913e-006 to 4.15913e-006
Heightened Def Con from 4.15913e-006 to 4.15913e-006
Heightened Def Con from 4.15913e-006 to 4.15913e-006
Heightened Def Con from 4.15914e-006 to 4.15914e-006
Heightened Def Con from 4.15959e-006 to 4.15959e-006
Heightened Def Con from 4.15959e-006 to 4.15959e-006
Heightened Def Con from 4.15959e-006 to 4.15959e-006
Heightened Def Con from 4.15959e-006 to 4.15959e-006
Heightened Def Con from 4.1596e-006 to 4.1596e-006
Heightened Def Con from 4.1596e-006 to 4.1596e-006
Heightened Def Con from 4.1596e-006 to 4.1596e-006
Heightened Def Con from 4.1596e-006 to 4.1616e-006
Heightened Def Con from 4.67e-006 to 4.672e-006
Heightened Def Con from 4.67524e-006 to 4.67637e-006
Heightened Def Con from 4.67675e-006 to 4.67813e-006
Heightened Def Con from 4.67813e-006 to 4.67827e-006
Heightened Def Con from 4.67827e-006 to 4.68327e-006
Heightened Def Con from 4.69859e-006 +++++++++++++++++++++++++to 4.70347e-006
Heightened Def Con from 4.70347e-006 to 4.7086e-006
Heightened Def Con from 4.70881e-006 to 4.71181e-006
Heightened Def Con from 4.77001e-006 to 4.77301e-006
Heightened Def Con from 4.84513e-006 to 4.84538e-006
Heightened Def Con from 4.84684e-006 to 4.84688e-006
Heightened Def Con from 4.84697e-006 to 4.84702e-006
Heightened Def Con from 4.84705e-006 to 4.84708e-006
Heightened Def Con from 4.84709e-006 to 4.8471e-006
Heightened Def Con from 4.84712e-006 to 4.84717e-006
Heightened Def Con from 4.84717e-006 to 4.84722e-006
Heightened Def Con from 4.84726e-006 to 4.84726e-006
Heightened Def Con from 4.84726e-006 to 4.84726e-006
Heightened Def Con from 4.84726e-006 to 4.84728e-006
Heightened Def Con from 4.84728e-006 to 4.84729e-006
Heightened Def Con from 4.84729e-006 to 4.84729e-006
Heightened Def Con from 4.84729e-006 to 4.84734e-006
Heightened Def Con from 4.84735e-006 to 4.84737e-006
Heightened Def Con from 4.84737e-006 to 4.84737e-006
Heightened Def Con from 4.84737e-006 to 4.84742e-006
Heightened Def Con from 4.84814e-006 to 4.84877e-006
Heightened Def Con from 5.36436e-006 to 5.36636e-006
Heightened Def Con from 5.37182e-006 to 5.37282e-006
Heightened Def Con from 5.37282e-006 to 5.37282e-006
Heightened Def Con from 5.37283e-006 to 5.37283e-006
Heightened Def Con from 5.37283e-006 to 5.37283e-006
Heightened Def Con from 5.37284e-006 to 5.37284e-006
Heightened Def Con from 5.37284e-006 to 5.37284e-006
Heightened Def Con from 5.37284e-006 to 5.37284e-006
Heightened Def Con from 5.37285e-006 to 5.37285e-006
Heightened Def Con from 5.37286e-006 to 5.37286e-006
Heightened Def Con from 5.37286e-006 to 5.37286e-006
Heightened Def Con from 5.37287e-006 to 5.37287e-006
Heightened Def Con from 5.37303e-006 to 5.37303e-006
Heightened Def Con from 5.37303e-006 to 5.37303e-006
Heightened Def Con from 5.37303e-006 to 5.37304e-006
Heightened Def Con from 5.37304e-006 to 5.37304e-006
Heightened Def Con from 5.37305e-006 to 5.37305e-006
Heightened Def Con from 5.37305e-006 to 5.37305e-006
Heightened Def Con from 5.37306e-006 to 5.37306e-006
Heightened Def Con from 5.37307e-006 to 5.37307e-006
Heightened Def Con from 5.37307e-006 to 5.37307e-006
Heightened Def Con from 5.37308e-006 to 5.37308e-006
Heightened Def Con from 5.37308e-006 to 5.37309e-006
Heightened Def Con from 5.3731e-006 to 5.3731e-006
Heightened Def Con from 5.3731e-006 to 5.3731e-006
Heightened Def Con from 5.3731e-006 to 5.3731e-006
Heightened Def Con from 5.3731e-006 to 5.3731e-006
Heightened Def Con from 5.37311e-006 to 5.37311e-006
Heightened Def Con from 5.37311e-006 to 5.37311e-006
Heightened Def Con from 5.37311e-006 to 5.37311e-006
Heightened Def Con from 5.37312e-006 to 5.37312e-006
Heightened Def Con from 5.37312e-006 to 5.37313e-006
Heightened Def Con from 5.37313e-006 to 5.37313e-006
Heightened Def Con from 5.37313e-006 to 5.37313e-006
Heightened Def Con from 5.37313e-006 to 5.37313e-006
Heightened Def Con from 5.37315e-006 to 5.37402e-006
Heightened Def Con from 5.42212e-006 to 5.42612e-006
Heightened Def Con from 5.66103e-006 to 5.66503e-006
Heightened Def Con from 7.82315e-006 to 7.82615e-006
Heightened Def Con from 8.29043e-006 to 8.29062e-006
Heightened Def Con from 8.29063e-006 to 8.29863e-006
Heightened Def Con from 8.42722e-006 to 8.43022e-006
Heightened Def Con from 8.44784e-006 to 8.44784e-006
Heightened Def Con from 8.44784e-006 to 8.44784e-006
Heightened Def Con from 8.44784e-006 to 8.44785e-006
Heightened Def Con from 8.44785e-006 to 8.44785e-006
Heightened Def Con from 8.44785e-006 to 8.44785e-006
Heightened Def Con from 8.44785e-006 to 8.44785e-006
Heightened Def Con from 8.44785e-006 to 8.44785e-006
Heightened Def Con from 8.44785e-006 to 8.44785e-006
Heightened Def Con from 8.44785e-006 to 8.44785e-006
Heightened Def Con from 8.44785e-006 to 8.44785e-006
Heightened Def Con from 8.44785e-006 to 8.44785e-006
Heightened Def Con from 8.44785e-006 to 8.44785e-006
Heightened Def Con from 8.44785e-006 to 8.44785e-006
Heightened Def Con from 8.44785e-006 to 8.44785e-006
Heightened Def Con from 8.44785e-006 to 8.44786e-006
Heightened Def Con from 8.44786e-006 to 8.44786e-006
Heightened Def Con from 8.44786e-006 to 8.44786e-006
Heightened Def Con from 8.44786e-006 to 8.44786e-006
Heightened Def Con from 8.44786e-006 to 8.44786e-006
Heightened Def Con from 8.44786e-006 to 8.44786e-006
Heightened Def Con from 8.44786e-006 to 8.44786e-006
Heightened Def Con from 8.44787e-006 to 8.44787e-006
Heightened Def Con from 8.44787e-006 to 8.44787e-006
Heightened Def Con from 8.44787e-006 to 8.44787e-006
Heightened Def Con from 8.44787e-006 to 8.44787e-006
Heightened Def Con from 8.44787e-006 to 8.44787e-006
Heightened Def Con from 8.44787e-006 to 8.44787e-006
Heightened Def Con from 8.44788e-006 to 8.44788e-006
Heightened Def Con from 8.44788e-006 to 8.44788e-006
Heightened Def Con from 8.44788e-006 to 8.44788e-006
Heightened Def Con from 8.44788e-006 to 8.44788e-006
Heightened Def Con from 8.44788e-006 to 8.44788e-006
Heightened Def Con from 8.44788e-006 to 8.44788e-006
Heightened Def Con from 8.44788e-006 to 8.44788e-006
Heightened Def Con from 8.44788e-006 to 8.44788e-006
Heightened Def Con from 8.44789e-006 to 8.44789e-006
Heightened Def Con from 8.44789e-006 to 8.44789e-006
Heightened Def Con from 8.44789e-006 to 8.44789e-006
Heightened Def Con from 8.44789e-006 to 8.44789e-006
Heightened Def Con from 8.44789e-006 to 8.44789e-006
Heightened Def Con from 8.44789e-006 to 8.44789e-006
Heightened Def Con from 8.44789e-006 to 8.44789e-006
Heightened Def Con from 8.44789e-006 to 8.44789e-006
Heightened Def Con from 8.44789e-006 to 8.4479e-006
Heightened Def Con from 8.4479e-006 to 8.4479e-006
Heightened Def Con from 8.4479e-006 to 8.4479e-006
Heightened Def Con from 8.4479e-006 to 8.4479e-006
Heightened Def Con from 8.4479e-006 to 8.4479e-006
Heightened Def Con from 8.4479e-006 to 8.4479e-006
Heightened Def Con from 8.4479e-006 to 8.4479e-006
Heightened Def Con from 8.4479e-006 to 8.4479e-006
Heightened Def Con from 8.4479e-006 to 8.4479e-006
Heightened Def Con from 8.44791e-006 to 8.44791e-006
Heightened Def Con from 8.44791e-006 to 8.44791e-006
Heightened Def Con from 8.44791e-006 to 8.44791e-006
Heightened Def Con from 8.44791e-006 to 8.44791e-006
Heightened Def Con from 8.44791e-006 to 8.44791e-006
Heightened Def Con from 8.44791e-006 to 8.44791e-006
Heightened Def Con from 8.44791e-006 to 8.44791e-006
Heightened Def Con from 8.44791e-006 to 8.44791e-006
Heightened Def Con from 8.44792e-006 to 8.44792e-006
Heightened Def Con from 8.44792e-006 to 8.44792e-006
Heightened Def Con from 8.44792e-006 to 8.44792e-006
Heightened Def Con from 8.44792e-006 to 8.44792e-006
Heightened Def Con from 8.44792e-006 to 8.44792e-006
Heightened Def Con from 8.44792e-006 to 8.44792e-006
Heightened Def Con from 8.44792e-006 to 8.44792e-006
Heightened Def Con from 8.44792e-006 to 8.44792e-006
Heightened Def Con from 8.44792e-006 to 8.44792e-006
Heightened Def Con from 8.44793e-006 to 8.44793e-006
Heightened Def Con from 8.44793e-006 to 8.44793e-006
Heightened Def Con from 8.44793e-006 to 8.44793e-006
Heightened Def Con from 8.44793e-006 to 8.44793e-006
Heightened Def Con from 8.44793e-006 to 8.44793e-006
Heightened Def Con from 8.44793e-006 to 8.44794e-006
Heightened Def Con from 8.44794e-006 to 8.44794e-006
Heightened Def Con from 8.44794e-006 to 8.44794e-006
Heightened Def Con from 8.44794e-006 to 8.44794e-006
Heightened Def Con from 8.44794e-006 to 8.44794e-006
Heightened Def Con from 8.44794e-006 to 8.44794e-006
Heightened Def Con from 8.44794e-006 to 8.44794e-006
Heightened Def Con from 8.44794e-006 to 8.44794e-006
Heightened Def Con from 8.44794e-006 to 8.44794e-006
Heightened Def Con from 8.44794e-006 to 8.44795e-006
Heightened Def Con from 8.44795e-006 to 8.44795e-006
Heightened Def Con from 8.44795e-006 to 8.44795e-006
Heightened Def Con from 8.44795e-006 to 8.44795e-006
Heightened Def Con from 8.44795e-006 to 8.44795e-006
Heightened Def Con from 8.44795e-006 to 8.44795e-006
Heightened Def Con from 8.44795e-006 to 8.44795e-006
Heightened Def Con from 8.44795e-006 to 8.44795e-006
Heightened Def Con from 8.44795e-006 to 8.44795e-006
Heightened Def Con from 8.44795e-006 to 8.44796e-006
Heightened Def Con from 8.44796e-006 to 8.44796e-006
Heightened Def Con from 8.44796e-006 to 8.44796e-006
Heightened Def Con from 8.44796e-006 to 8.44796e-006
Heightened Def Con from 8.44796e-006 to 8.44796e-006
Heightened Def Con from 8.44796e-006 to 8.44796e-006
Heightened Def Con from 8.44796e-006 to 8.44796e-006
Heightened Def Con from 8.44796e-006 to 8.44796e-006
Heightened Def Con from 8.44797e-006 to 8.44797e-006
Heightened Def Con from 8.44797e-006 to 8.44797e-006
Heightened Def Con from 8.44797e-006 to 8.44797e-006
Heightened Def Con from 8.44797e-006 to 8.44797e-006
Heightened Def Con from 8.44797e-006 to 8.44797e-006
Heightened Def Con from 8.44798e-006 to 8.44798e-006
Heightened Def Con from 8.44798e-006 to 8.44798e-006
Heightened Def Con from 8.44798e-006 to 8.44798e-006
Heightened Def Con from 8.44798e-006 to 8.44798e-006
Heightened Def Con from 8.44798e-006 to 8.44798e-006
Heightened Def Con from 8.44798e-006 to 8.44798e-006
Heightened Def Con from 8.44798e-006 to 8.44798e-006
Heightened Def Con from 8.44798e-006 to 8.44799e-006
Heightened Def Con from 8.44799e-006 to 8.44799e-006
Heightened Def Con from 8.44799e-006 to 8.44799e-006
Heightened Def Con from 8.44799e-006 to 8.44799e-006
Heightened Def Con from 8.44799e-006 to 8.44799e-006
Heightened Def Con from 8.44799e-006 to 8.44799e-006
Heightened Def Con from 8.44799e-006 to 8.44799e-006
Heightened Def Con from 8.44799e-006 to 8.448e-006
Heightened Def Con from 8.448e-006 to 8.448e-006
Heightened Def Con from 8.448e-006 to 8.448e-006
Heightened Def Con from 8.448e-006 to 8.448e-006
Heightened Def Con from 8.44801e-006 to 8.44801e-006
Heightened Def Con from 8.44801e-006 to 8.44801e-006
Heightened Def Con from 8.44801e-006 to 8.44801e-006
Heightened Def Con from 8.44801e-006 to 8.44801e-006
Heightened Def Con from 8.44801e-006 to 8.44801e-006
Heightened Def Con from 8.44802e-006 to 8.44802e-006
Heightened Def Con from 8.44802e-006 to 8.44802e-006
Heightened Def Con from 8.44802e-006 to 8.44802e-006
Heightened Def Con from 8.44802e-006 to 8.44802e-006
Heightened Def Con from 8.44802e-006 to 8.44803e-006
Heightened Def Con from 8.44803e-006 to 8.44803e-006
Heightened Def Con from 8.44803e-006 to 8.44803e-006
Heightened Def Con from 8.44803e-006 to 8.44803e-006
Heightened Def Con from 8.44803e-006 to 8.44803e-006
Heightened Def Con from 8.44803e-006 to 8.44803e-006
Heightened Def Con from 8.44803e-006 to 8.44803e-006
Heightened Def Con from 8.44803e-006 to 8.44803e-006
Heightened Def Con from 8.44803e-006 to 8.44803e-006
Heightened Def Con from 8.44803e-006 to 8.44803e-006
Heightened Def Con from 8.44803e-006 to 8.44803e-006
Heightened Def Con from 8.44803e-006 to 8.44803e-006
Heightened Def Con from 8.44803e-006 to 8.44803e-006
Heightened Def Con from 8.44803e-006 to 8.44804e-006
Heightened Def Con from 8.44804e-006 to 8.44804e-006
Heightened Def Con from 8.44804e-006 to 8.44804e-006
Heightened Def Con from 8.44804e-006 to 8.44804e-006
Heightened Def Con from 8.44804e-006 to 8.44804e-006
Heightened Def Con from 8.44804e-006 to 8.44804e-006
Heightened Def Con from 8.44804e-006 to 8.44804e-006
Heightened Def Con from 8.44804e-006 to 8.44804e-006
Heightened Def Con from 8.44804e-006 to 8.44804e-006
Heightened Def Con from 8.44804e-006 to 8.44804e-006
Heightened Def Con from 8.44805e-006 to 8.44805e-006
Heightened Def Con from 8.44805e-006 to 8.44805e-006
Heightened Def Con from 8.44806e-006 to 8.44806e-006
Heightened Def Con from 8.44806e-006 to 8.44806e-006
Heightened Def Con from 8.44806e-006 to 8.44806e-006
Heightened Def Con from 8.44806e-006 to 8.44806e-006
Heightened Def Con from 8.44806e-006 to 8.44806e-006
Heightened Def Con from 8.44806e-006 to 8.44806e-006
Heightened Def Con from 8.44806e-006 to 8.44806e-006
Heightened Def Con from 8.44806e-006 to 8.44806e-006
Heightened Def Con from 8.44806e-006 to 8.44806e-006
Heightened Def Con from 8.44806e-006 to 8.44806e-006
Heightened Def Con from 8.44806e-006 to 8.44806e-006
Heightened Def Con from 8.44806e-006 to 8.44806e-006
Heightened Def Con from 8.44807e-006 to 8.44807e-006
Heightened Def Con from 8.44807e-006 to 8.44807e-006
Heightened Def Con from 8.44807e-006 to 8.44807e-006
Heightened Def Con from 8.44807e-006 to 8.44807e-006
Heightened Def Con from 8.44807e-006 to 8.44807e-006
Heightened Def Con from 8.44807e-006 to 8.44807e-006
Heightened Def Con from 8.44807e-006 to 8.44807e-006
Heightened Def Con from 8.44807e-006 to 8.44807e-006
Heightened Def Con from 8.44807e-006 to 8.44807e-006
Heightened Def Con from 8.44807e-006 to 8.44807e-006
Heightened Def Con from 8.44807e-006 to 8.44807e-006
Heightened Def Con from 8.44808e-006 to 8.44808e-006
Heightened Def Con from 8.44808e-006 to 8.44808e-006
Heightened Def Con from 8.44808e-006 to 8.44808e-006
Heightened Def Con from 8.44808e-006 to 8.44808e-006
Heightened Def Con from 8.44808e-006 to 8.44808e-006
Heightened Def Con from 8.44809e-006 to 8.44809e-006
Heightened Def Con from 8.44809e-006 to 8.44809e-006
Heightened Def Con from 8.44809e-006 to 8.44809e-006
Heightened Def Con from 8.44809e-006 to 8.44809e-006
Heightened Def Con from 8.44809e-006 to 8.44809e-006
Heightened Def Con from 8.44809e-006 to 8.44809e-006
Heightened Def Con from 8.44809e-006 to 8.4481e-006
Heightened Def Con from 8.4481e-006 to 8.4481e-006
Heightened Def Con from 8.4481e-006 to 8.4481e-006
Heightened Def Con from 8.4481e-006 to 8.44811e-006
Heightened Def Con from 8.44811e-006 to 8.44811e-006
Heightened Def Con from 8.44811e-006 to 8.44811e-006
Heightened Def Con from 8.44811e-006 to 8.44811e-006
Heightened Def Con from 8.44811e-006 to 8.44811e-006
Heightened Def Con from 8.44811e-006 to 8.44811e-006
Heightened Def Con from 8.44811e-006 to 8.44811e-006
Heightened Def Con from 8.44811e-006 to 8.44811e-006
Heightened Def Con from 8.44811e-006 to 8.44811e-006
Heightened Def Con from 8.44811e-006 to 8.44811e-006
Heightened Def Con from 8.44811e-006 to 8.44811e-006
Heightened Def Con from 8.44812e-006 to 8.44812e-006
Heightened Def Con from 8.44812e-006 to 8.44812e-006
Heightened Def Con from 8.44812e-006 to 8.44812e-006
Heightened Def Con from 8.44812e-006 to 8.44812e-006
Heightened Def Con from 8.44812e-006 to 8.44812e-006
Heightened Def Con from 8.44812e-006 to 8.44812e-006
Heightened Def Con from 8.44812e-006 to 8.44812e-006
Heightened Def Con from 8.44812e-006 to 8.44812e-006
Heightened Def Con from 8.44812e-006 to 8.44812e-006
Heightened Def Con from 8.44812e-006 to 8.44812e-006
Heightened Def Con from 8.44812e-006 to 8.44812e-006
Heightened Def Con from 8.44812e-006 to 8.44812e-006
Heightened Def Con from 8.44813e-006 to 8.44813e-006
Heightened Def Con from 8.44813e-006 to 8.44813e-006
Heightened Def Con from 8.44813e-006 to 8.44814e-006
Heightened Def Con from 8.44814e-006 to 8.44814e-006
Heightened Def Con from 8.44814e-006 to 8.44814e-006
Heightened Def Con from 8.44814e-006 to 8.44814e-006
Heightened Def Con from 8.44814e-006 to 8.44814e-006
Heightened Def Con from 8.44814e-006 to 8.44814e-006
Heightened Def Con from 8.44814e-006 to 8.44814e-006
Heightened Def Con from 8.44814e-006 to 8.44815e-006
Heightened Def Con from 8.44815e-006 to 8.44815e-006
Heightened Def Con from 8.44815e-006 to 8.44815e-006
Heightened Def Con from 8.44815e-006 to 8.44815e-006
Heightened Def Con from 8.44815e-006 to 8.44816e-006
Heightened Def Con from 8.44816e-006 to 8.44816e-006
Heightened Def Con from 8.44816e-006 to 8.44816e-006
Heightened Def Con from 8.44816e-006 to 8.44816e-006
Heightened Def Con from 8.44816e-006 to 8.44816e-006
Heightened Def Con from 8.44816e-006 to 8.44816e-006
Heightened Def Con from 8.44816e-006 to 8.44816e-006
Heightened Def Con from 8.44816e-006 to 8.44816e-006
Heightened Def Con from 8.44816e-006 to 8.44817e-006
Heightened Def Con from 8.44817e-006 to 8.44817e-006
Heightened Def Con from 8.44817e-006 to 8.44817e-006
Heightened Def Con from 8.44817e-006 to 8.44817e-006
Heightened Def Con from 8.44817e-006 to 8.44817e-006
Heightened Def Con from 8.44817e-006 to 8.44817e-006
Heightened Def Con from 8.44818e-006 to 8.44818e-006
Heightened Def Con from 8.44818e-006 to 8.44818e-006
Heightened Def Con from 8.44818e-006 to 8.44818e-006
Heightened Def Con from 8.44818e-006 to 8.44818e-006
Heightened Def Con from 8.44818e-006 to 8.44818e-006
Heightened Def Con from 8.44818e-006 to 8.44819e-006
Heightened Def Con from 8.44819e-006 to 8.44819e-006
Heightened Def Con from 8.44819e-006 to 8.44819e-006
Heightened Def Con from 8.44819e-006 to 8.44819e-006
Heightened Def Con from 8.44819e-006 to 8.44819e-006
Heightened Def Con from 8.44819e-006 to 8.44819e-006
Heightened Def Con from 8.44819e-006 to 8.44819e-006
Heightened Def Con from 8.4482e-006 to 8.4482e-006
Heightened Def Con from 8.4482e-006 to 8.4482e-006
Heightened Def Con from 8.4482e-006 to 8.4482e-006
Heightened Def Con from 8.4482e-006 to 8.4482e-006
Heightened Def Con from 8.4482e-006 to 8.4482e-006
Heightened Def Con from 8.4482e-006 to 8.4482e-006
Heightened Def Con from 8.44821e-006 to 8.44821e-006
Heightened Def Con from 8.44821e-006 to 8.44821e-006
Heightened Def Con from 8.44821e-006 to 8.44821e-006
Heightened Def Con from 8.44821e-006 to 8.44821e-006
Heightened Def Con from 8.44821e-006 to 8.44821e-006
Heightened Def Con from 8.44821e-006 to 8.44821e-006
Heightened Def Con from 8.44821e-006 to 8.44821e-006
Heightened Def Con from 8.44821e-006 to 8.44821e-006
Heightened Def Con from 8.44821e-006 to 8.44821e-006
Heightened Def Con from 8.44821e-006 to 8.44821e-006
Heightened Def Con from 8.44821e-006 to 8.44821e-006
Heightened Def Con from 8.44821e-006 to 8.44822e-006
Heightened Def Con from 8.44822e-006 to 8.44822e-006
Heightened Def Con from 8.44822e-006 to 8.44822e-006
Heightened Def Con from 8.44822e-006 to 8.44822e-006
Heightened Def Con from 8.44822e-006 to 8.44822e-006
Heightened Def Con from 8.44822e-006 to 8.44822e-006
Heightened Def Con from 8.44822e-006 to 8.44822e-006
Heightened Def Con from 8.44822e-006 to 8.44823e-006
Heightened Def Con from 8.44823e-006 to 8.44823e-006
Heightened Def Con from 8.44823e-006 to 8.44823e-006
Heightened Def Con from 8.44823e-006 to 8.44823e-006
Heightened Def Con from 8.44823e-006 to 8.44823e-006
Heightened Def Con from 8.44823e-006 to 8.44823e-006
Heightened Def Con from 8.44823e-006 to 8.44823e-006
Heightened Def Con from 8.44823e-006 to 8.44823e-006
Heightened Def Con from 8.44823e-006 to 8.44823e-006
Heightened Def Con from 8.44823e-006 to 8.44823e-006
Heightened Def Con from 8.44823e-006 to 8.44823e-006
Heightened Def Con from 8.44823e-006 to 8.44823e-006
Heightened Def Con from 8.44823e-006 to 8.44823e-006
Heightened Def Con from 8.44824e-006 to 8.44824e-006
Heightened Def Con from 8.44824e-006 to 8.44824e-006
Heightened Def Con from 8.44824e-006 to 8.44824e-006
Heightened Def Con from 8.44824e-006 to 8.44824e-006
Heightened Def Con from 8.44824e-006 to 8.44824e-006
Heightened Def Con from 8.44824e-006 to 8.44824e-006
Heightened Def Con from 8.44824e-006 to 8.44824e-006
Heightened Def Con from 8.44824e-006 to 8.44824e-006
Heightened Def Con from 8.44824e-006 to 8.44824e-006
Heightened Def Con from 8.44824e-006 to 8.44824e-006
Heightened Def Con from 8.44825e-006 to 8.44825e-006
Heightened Def Con from 8.44825e-006 to 8.44825e-006
Heightened Def Con from 8.44825e-006 to 8.44825e-006
Heightened Def Con from 8.44825e-006 to 8.44825e-006
Heightened Def Con from 8.44825e-006 to 8.44825e-006
Heightened Def Con from 8.44825e-006 to 8.44826e-006
Heightened Def Con from 8.44826e-006 to 8.44826e-006
Heightened Def Con from 8.44826e-006 to 8.44826e-006
Heightened Def Con from 8.44826e-006 to 8.44826e-006
Heightened Def Con from 8.44827e-006 to 8.44827e-006
Heightened Def Con from 8.44827e-006 to 8.44828e-006
Heightened Def Con from 8.44828e-006 to 8.44828e-006
Heightened Def Con from 8.44828e-006 to 8.44828e-006
Heightened Def Con from 8.44828e-006 to 8.44828e-006
Heightened Def Con from 8.44828e-006 to 8.44828e-006
Heightened Def Con from 8.44828e-006 to 8.44828e-006
Heightened Def Con from 8.44828e-006 to 8.44828e-006
Heightened Def Con from 8.44828e-006 to 8.44828e-006
Heightened Def Con from 8.44829e-006 to 8.44829e-006
Heightened Def Con from 8.44829e-006 to 8.44829e-006
Heightened Def Con from 8.44829e-006 to 8.44829e-006
Heightened Def Con from 8.44829e-006 to 8.44829e-006
Heightened Def Con from 8.44829e-006 to 8.44829e-006
Heightened Def Con from 8.4483e-006 to 8.4483e-006
Heightened Def Con from 8.4483e-006 to 8.4483e-006
Heightened Def Con from 8.4483e-006 to 8.4483e-006
Heightened Def Con from 8.4483e-006 to 8.4483e-006
Heightened Def Con from 8.4483e-006 to 8.4483e-006
Heightened Def Con from 8.4483e-006 to 8.4483e-006
Heightened Def Con from 8.4483e-006 to 8.44831e-006
Heightened Def Con from 8.44831e-006 to 8.44831e-006
Heightened Def Con from 8.44831e-006 to 8.44831e-006
Heightened Def Con from 8.44831e-006 to 8.44831e-006
Heightened Def Con from 8.44831e-006 to 8.44831e-006
Heightened Def Con from 8.44831e-006 to 8.44831e-006
Heightened Def Con from 8.44831e-006 to 8.44831e-006
Heightened Def Con from 8.44831e-006 to 8.44832e-006
Heightened Def Con from 8.44832e-006 to 8.44832e-006
Heightened Def Con from 8.44832e-006 to 8.44832e-006
Heightened Def Con from 8.44832e-006 to 8.44832e-006
Heightened Def Con from 8.44832e-006 to 8.44832e-006
Heightened Def Con from 8.44832e-006 to 8.44832e-006
Heightened Def Con from 8.44832e-006 to 8.44833e-006
Heightened Def Con from 8.44833e-006 to 8.44833e-006
Heightened Def Con from 8.44833e-006 to 8.44833e-006
Heightened Def Con from 8.44833e-006 to 8.44833e-006
Heightened Def Con from 8.44833e-006 to 8.44833e-006
Heightened Def Con from 8.44833e-006 to 8.44833e-006
Heightened Def Con from 8.44833e-006 to 8.44833e-006
Heightened Def Con from 8.44833e-006 to 8.44834e-006
Heightened Def Con from 8.44834e-006 to 8.44834e-006
Heightened Def Con from 8.44834e-006 to 8.44834e-006
Heightened Def Con from 8.44834e-006 to 8.44834e-006
Heightened Def Con from 8.44834e-006 to 8.44834e-006
Heightened Def Con from 8.44834e-006 to 8.44835e-006
Heightened Def Con from 8.44835e-006 to 8.44835e-006
Heightened Def Con from 8.44835e-006 to 8.44835e-006
Heightened Def Con from 8.44835e-006 to 8.44836e-006
Heightened Def Con from 8.44836e-006 to 8.44836e-006
Heightened Def Con from 8.44836e-006 to 8.44836e-006
Heightened Def Con from 8.44836e-006 to 8.44836e-006
Heightened Def Con from 8.44836e-006 to 8.44836e-006
Heightened Def Con from 8.44836e-006 to 8.44836e-006
Heightened Def Con from 8.44836e-006 to 8.44836e-006
Heightened Def Con from 8.44836e-006 to 8.44836e-006
Heightened Def Con from 8.44836e-006 to 8.44837e-006
Heightened Def Con from 8.44837e-006 to 8.44837e-006
Heightened Def Con from 8.44837e-006 to 8.44837e-006
Heightened Def Con from 8.44837e-006 to 8.44837e-006
Heightened Def Con from 8.44837e-006 to 8.44837e-006
Heightened Def Con from 8.44837e-006 to 8.44837e-006
Heightened Def Con from 8.44837e-006 to 8.44837e-006
Heightened Def Con from 8.44837e-006 to 8.44837e-006
Heightened Def Con from 8.44838e-006 to 8.44838e-006
Heightened Def Con from 8.44838e-006 to 8.44838e-006
Heightened Def Con from 8.44838e-006 to 8.44838e-006
Heightened Def Con from 8.44838e-006 to 8.44838e-006
Heightened Def Con from 8.44838e-006 to 8.44838e-006
Heightened Def Con from 8.44838e-006 to 8.44838e-006
Heightened Def Con from 8.44838e-006 to 8.44838e-006
Heightened Def Con from 8.44838e-006 to 8.44838e-006
Heightened Def Con from 8.44838e-006 to 8.44838e-006
Heightened Def Con from 8.44838e-006 to 8.44838e-006
Heightened Def Con from 8.44838e-006 to 8.44838e-006
Heightened Def Con from 8.44839e-006 to 8.44839e-006
Heightened Def Con from 8.44839e-006 to 8.4484e-006
Heightened Def Con from 8.4484e-006 to 8.4484e-006
Heightened Def Con from 8.4484e-006 to 8.4484e-006
Heightened Def Con from 8.4484e-006 to 8.4484e-006
Heightened Def Con from 8.4484e-006 to 8.4484e-006
Heightened Def Con from 8.4484e-006 to 8.4484e-006
Heightened Def Con from 8.4484e-006 to 8.4484e-006
Heightened Def Con from 8.4484e-006 to 8.4484e-006
Heightened Def Con from 8.4484e-006 to 8.4484e-006
Heightened Def Con from 8.4484e-006 to 8.4484e-006
Heightened Def Con from 8.4484e-006 to 8.4484e-006
Heightened Def Con from 8.4484e-006 to 8.44841e-006
Heightened Def Con from 8.44841e-006 to 8.44841e-006
Heightened Def Con from 8.44841e-006 to 8.44841e-006
Heightened Def Con from 8.44841e-006 to 8.44841e-006
Heightened Def Con from 8.44841e-006 to 8.44841e-006
Heightened Def Con from 8.44841e-006 to 8.44841e-006
Heightened Def Con from 8.44841e-006 to 8.44841e-006
Heightened Def Con from 8.44841e-006 to 8.44841e-006
Heightened Def Con from 8.44841e-006 to 8.44841e-006
Heightened Def Con from 8.44841e-006 to 8.44841e-006
Heightened Def Con from 8.44841e-006 to 8.44841e-006
Heightened Def Con from 8.44841e-006 to 8.44842e-006
Heightened Def Con from 8.44842e-006 to 8.44842e-006
Heightened Def Con from 8.44842e-006 to 8.44842e-006
Heightened Def Con from 8.44842e-006 to 8.44842e-006
Heightened Def Con from 8.44842e-006 to 8.44842e-006
Heightened Def Con from 8.44842e-006 to 8.44842e-006
Heightened Def Con from 8.44842e-006 to 8.44842e-006
Heightened Def Con from 8.44842e-006 to 8.44843e-006
Heightened Def Con from 8.44843e-006 to 8.44843e-006
Heightened Def Con from 8.44843e-006 to 8.44843e-006
Heightened Def Con from 8.44843e-006 to 8.44844e-006
Heightened Def Con from 8.44844e-006 to 8.44844e-006
Heightened Def Con from 8.44844e-006 to 8.44844e-006
Heightened Def Con from 8.44844e-006 to 8.44844e-006
Heightened Def Con from 8.44844e-006 to 8.44844e-006
Heightened Def Con from 8.44844e-006 to 8.44844e-006
Heightened Def Con from 8.44844e-006 to 8.44845e-006
Heightened Def Con from 8.44845e-006 to 8.44845e-006
Heightened Def Con from 8.44845e-006 to 8.44845e-006
Heightened Def Con from 8.44845e-006 to 8.44845e-006
Heightened Def Con from 8.44845e-006 to 8.44845e-006
Heightened Def Con from 8.44845e-006 to 8.44845e-006
Heightened Def Con from 8.44845e-006 to 8.44846e-006
Heightened Def Con from 8.44846e-006 to 8.44846e-006
Heightened Def Con from 8.44846e-006 to 8.44846e-006
Heightened Def Con from 8.44846e-006 +to 8.44846e-006
Heightened Def Con from 8.44846e-006 to 8.44846e-006
Heightened Def Con from 8.44846e-006 to 8.44846e-006
Heightened Def Con from 8.44846e-006 to 8.44846e-006
Heightened Def Con from 8.44847e-006 to 8.44847e-006
Heightened Def Con from 8.44847e-006 to 8.44847e-006
Heightened Def Con from 8.44847e-006 to 8.44847e-006
Heightened Def Con from 8.44847e-006 to 8.44847e-006
Heightened Def Con from 8.44847e-006 to 8.44847e-006
Heightened Def Con from 8.44847e-006 to 8.44847e-006
Heightened Def Con from 8.44847e-006 to 8.44847e-006
Heightened Def Con from 8.44847e-006 to 8.44847e-006
Heightened Def Con from 8.44847e-006 to 8.44847e-006
Heightened Def Con from 8.44847e-006 to 8.44847e-006
Heightened Def Con from 8.44847e-006 to 8.44847e-006
Heightened Def Con from 8.44847e-006 to 8.44848e-006
Heightened Def Con from 8.44848e-006 to 8.44848e-006
Heightened Def Con from 8.44848e-006 to 8.44848e-006
Heightened Def Con from 8.44848e-006 to 8.44848e-006
Heightened Def Con from 8.44848e-006 to 8.44848e-006
Heightened Def Con from 8.44848e-006 to 8.44849e-006
Heightened Def Con from 8.44849e-006 to 8.44849e-006
Heightened Def Con from 8.44849e-006 to 8.44849e-006
Heightened Def Con from 8.44849e-006 to 8.44849e-006
Heightened Def Con from 8.44849e-006 to 8.44849e-006
Heightened Def Con from 8.4485e-006 to 8.4485e-006
Heightened Def Con from 8.4485e-006 to 8.4485e-006
Heightened Def Con from 8.4485e-006 to 8.4485e-006
Heightened Def Con from 8.4485e-006 to 8.4485e-006
Heightened Def Con from 8.4485e-006 to 8.4485e-006
Heightened Def Con from 8.4485e-006 to 8.4485e-006
Heightened Def Con from 8.4485e-006 to 8.4485e-006
Heightened Def Con from 8.4485e-006 to 8.4485e-006
Heightened Def Con from 8.4485e-006 to 8.44851e-006
Heightened Def Con from 8.44851e-006 to 8.44851e-006
Heightened Def Con from 8.44851e-006 to 8.44851e-006
Heightened Def Con from 8.44851e-006 to 8.44851e-006
Heightened Def Con from 8.44851e-006 to 8.44851e-006
Heightened Def Con from 8.44851e-006 to 8.44851e-006
Heightened Def Con from 8.44851e-006 to 8.44851e-006
Heightened Def Con from 8.44851e-006 to 8.44851e-006
Heightened Def Con from 8.44851e-006 to 8.44851e-006
Heightened Def Con from 8.44851e-006 to 8.44851e-006
Heightened Def Con from 8.44851e-006 to 8.44851e-006
Heightened Def Con from 8.44851e-006 +to 8.44851e-006
Heightened Def Con from 8.44852e-006 to 8.44852e-006
Heightened Def Con from 8.44852e-006 to 8.44852e-006
Heightened Def Con from 8.44852e-006 to 8.44852e-006
Heightened Def Con from 8.44852e-006 to 8.44852e-006
Heightened Def Con from 8.44852e-006 to 8.44852e-006
Heightened Def Con from 8.44852e-006 to 8.44852e-006
Heightened Def Con from 8.44852e-006 to 8.44852e-006
Heightened Def Con from 8.44852e-006 to 8.44852e-006
Heightened Def Con from 8.44852e-006 to 8.44852e-006
Heightened Def Con from 8.44852e-006 to 8.44852e-006
Heightened Def Con from 8.44852e-006 to 8.44853e-006
Heightened Def Con from 8.44853e-006 to 8.44853e-006
Heightened Def Con from 8.44853e-006 to 8.44853e-006
Heightened Def Con from 8.44853e-006 to 8.44853e-006
Heightened Def Con from 8.44853e-006 to 8.44853e-006
Heightened Def Con from 8.44853e-006 to 8.44853e-006
Heightened Def Con from 8.44853e-006 to 8.44854e-006
Heightened Def Con from 8.44854e-006 to 8.44854e-006
Heightened Def Con from 8.44854e-006 to 8.44854e-006
Heightened Def Con from 8.44854e-006 to 8.44854e-006
Heightened Def Con from 8.44854e-006 to 8.44854e-006
Heightened Def Con from 8.44854e-006 to 8.44854e-006
Heightened Def Con from 8.44854e-006 to 8.44854e-006
Heightened Def Con from 8.44854e-006 to 8.44855e-006
Heightened Def Con from 8.44855e-006 to 8.44855e-006
Heightened Def Con from 8.44855e-006 to 8.44855e-006
Heightened Def Con from 8.44855e-006 to 8.44855e-006
Heightened Def Con from 8.44855e-006 to 8.44855e-006
Heightened Def Con from 8.44855e-006 to 8.44855e-006
Heightened Def Con from 8.44855e-006 to 8.44855e-006
Heightened Def Con from 8.44855e-006 to 8.44855e-006
Heightened Def Con from 8.44855e-006 to 8.44856e-006
Heightened Def Con from 8.44856e-006 to 8.44856e-006
Heightened Def Con from 8.44856e-006 to 8.44856e-006
Heightened Def Con from 8.44856e-006 to 8.44856e-006
Heightened Def Con from 8.44856e-006 to 8.44857e-006
Heightened Def Con from 8.44857e-006 to 8.44857e-006
Heightened Def Con from 8.44857e-006 to 8.44857e-006
Heightened Def Con from 8.44857e-006 to 8.44857e-006
Heightened Def Con from 8.44857e-006 to 8.44857e-006
Heightened Def Con from 8.44857e-006 to 8.44857e-006
Heightened Def Con from 8.44857e-006 to 8.44857e-006
Heightened Def Con from 8.44857e-006 to 8.44857e-006
Heightened Def Con from 8.44857e-006 to 8.44857e-006
Heightened Def Con from 8.44857e-006 to 8.44857e-006
Heightened Def Con from 8.44857e-006 to 8.44857e-006
Heightened Def Con from 8.44857e-006 to 8.44857e-006
Heightened Def Con from 8.44857e-006 to 8.44858e-006
Heightened Def Con from 8.44858e-006 to 8.44858e-006
Heightened Def Con from 8.44858e-006 to 8.44858e-006
Heightened Def Con from 8.44858e-006 to 8.44858e-006
Heightened Def Con from 8.44858e-006 to 8.44858e-006
Heightened Def Con from 8.44858e-006 to 8.44858e-006
Heightened Def Con from 8.44858e-006 to 8.44858e-006
Heightened Def Con from 8.44858e-006 to 8.44858e-006
Heightened Def Con from 8.44858e-006 to 8.44859e-006
Heightened Def Con from 8.44859e-006 to 8.44859e-006
Heightened Def Con from 8.44859e-006 to 8.44859e-006
Heightened Def Con from 8.44859e-006 to 8.4486e-006
Heightened Def Con from 8.4486e-006 to 8.4486e-006
Heightened Def Con from 8.4486e-006 to 8.4486e-006
Heightened Def Con from 8.4486e-006 to 8.4486e-006
Heightened Def Con from 8.4486e-006 to 8.4486e-006
Heightened Def Con from 8.4486e-006 to 8.4486e-006
Heightened Def Con from 8.4486e-006 to 8.4486e-006
Heightened Def Con from 8.4486e-006 to 8.4486e-006
Heightened Def Con from 8.4486e-006 to 8.4486e-006
Heightened Def Con from 8.4486e-006 to 8.4486e-006
Heightened Def Con from 8.4486e-006 to 8.4486e-006
Heightened Def Con from 8.44861e-006 to 8.44886e-006
Heightened Def Con from 8.44886e-006 to 8.45686e-006
Heightened Def Con from 8.56152e-006 to 8.56452e-006
Heightened Def Con from 8.5848e-006 to 8.5878e-006
Heightened Def Con from 8.62857e-006 to 8.63157e-006
Heightened Def Con from 8.96444e-006 to 8.96569e-006
Heightened Def Con from 8.9657e-006 to 8.96657e-006
Heightened Def Con from 8.96882e-006 to 8.97282e-006
Heightened Def Con from 9.58177e-006 to 9.59189e-006
Heightened Def Con from 9.59215e-006 to 9.59515e-006
Heightened Def Con from 9.7212e-006 to 9.7242e-006
Heightened Def Con from 9.74282e-006 to 9.74283e-006
Heightened Def Con from 9.743e-006 to 9.74305e-006
Heightened Def Con from 9.74309e-006 to 9.74309e-006
Heightened Def Con from 9.74311e-006 to 9.74311e-006
Heightened Def Con from 9.74312e-006 to 9.74312e-006
Heightened Def Con from 9.74312e-006 to 9.74312e-006
Heightened Def Con from 9.74312e-006 to 9.74315e-006
Heightened Def Con from 9.74315e-006 to 9.74319e-006
Heightened Def Con from 9.74319e-006 to 9.74323e-006
Heightened Def Con from 9.74325e-006 to 9.7433e-006
Heightened Def Con from 9.7433e-006 to 9.74333e-006
Heightened Def Con from 9.74333e-006 to 9.74333e-006
Heightened Def Con from 9.74333e-006 to 9.74335e-006
Heightened Def Con from 9.74335e-006 to 9.74337e-006
Heightened Def Con from 9.74337e-006 to 9.74337e-006
Heightened Def Con from 9.74337e-006 to 9.74342e-006
Heightened Def Con from 9.74356e-006 to 9.74356e-006
Heightened Def Con from 9.74357e-006 to 9.7436e-006
Heightened Def Con from 9.74364e-006 to 9.74368e-006
Heightened Def Con from 9.74415e-006 to 9.7442e-006
Heightened Def Con from 9.74424e-006 to 9.74424e-006
Heightened Def Con from 9.74424e-006 to 9.74426e-006
Heightened Def Con from 9.74427e-006 to 9.74427e-006
Heightened Def Con from 9.74427e-006 to 9.74427e-006
Heightened Def Con from 9.74427e-006 to 9.74429e-006
Heightened Def Con from 9.7443e-006 to 9.7443e-006
Heightened Def Con from 9.7443e-006 to 9.7443e-006
Heightened Def Con from 9.74432e-006 to 9.74435e-006
Heightened Def Con from 9.74435e-006 to 9.74437e-006
Heightened Def Con from 9.74437e-006 to 9.74437e-006
Heightened Def Con from 9.74439e-006 to 9.74439e-006
Heightened Def Con from 9.74441e-006 to 9.74446e-006
Heightened Def Con from 9.74456e-006 to 9.74518e-006
Heightened Def Con from 9.74545e-006 to 9.75445e-006
Heightened Def Con from 1.01895e-005 to 1.01925e-005
Heightened Def Con from 1.02392e-005 to 1.02442e-005
Heightened Def Con from 1.02502e-005 to 1.02532e-005
Heightened Def Con from 1.02552e-005 to 1.02562e-005
Heightened Def Con from 1.02563e-005 to 1.02563e-005
Heightened Def Con from 1.02563e-005 to 1.02563e-005
Heightened Def Con from 1.02563e-005 to 1.02563e-005
Heightened Def Con from 1.02563e-005 to 1.02563e-005
Heightened Def Con from 1.02563e-005 to 1.02563e-005
Heightened Def Con from 1.02563e-005 to 1.02563e-005
Heightened Def Con from 1.02563e-005 to 1.02563e-005
Heightened Def Con from 1.02563e-005 to 1.02563e-005
Heightened Def Con from 1.02563e-005 to 1.02563e-005
Heightened Def Con from 1.02563e-005 to 1.02563e-005
Heightened Def Con from 1.02563e-005 to 1.02563e-005
Heightened Def Con from 1.02563e-005 to 1.02563e-005
Heightened Def Con from 1.02563e-005 to 1.02563e-005
Heightened Def Con from 1.02563e-005 to 1.02563e-005
Heightened Def Con from 1.02563e-005 to 1.02563e-005
Heightened Def Con from 1.02563e-005 to 1.02563e-005
Heightened Def Con from 1.02563e-005 to 1.02563e-005
Heightened Def Con from 1.02563e-005 to 1.02563e-005
Heightened Def Con from 1.02563e-005 to 1.02564e-005
Heightened Def Con from 1.02564e-005 to 1.02564e-005
Heightened Def Con from 1.02564e-005 to 1.02564e-005
Heightened Def Con from 1.02564e-005 to 1.02564e-005
Heightened Def Con from 1.02564e-005 to 1.02564e-005
Heightened Def Con from 1.02564e-005 to 1.02564e-005
Heightened Def Con from 1.02564e-005 to 1.02564e-005
Heightened Def Con from 1.02564e-005 to 1.02564e-005
Heightened Def Con from 1.02564e-005 to 1.02564e-005
Heightened Def Con from 1.02565e-005 to 1.02565e-005
Heightened Def Con from 1.02565e-005 to 1.02565e-005
Heightened Def Con from 1.02565e-005 to 1.02565e-005
Heightened Def Con from 1.02565e-005 to 1.02565e-005
Heightened Def Con from 1.02565e-005 to 1.02565e-005
Heightened Def Con from 1.02565e-005 to 1.02565e-005
Heightened Def Con from 1.02565e-005 to 1.02565e-005
Heightened Def Con from 1.02565e-005 to 1.02565e-005
Heightened Def Con from 1.02565e-005 to 1.02565e-005
Heightened Def Con from 1.02565e-005 to 1.02565e-005
Heightened Def Con from 1.02565e-005 to 1.02565e-005
Heightened Def Con from 1.02565e-005 to 1.02565e-005
Heightened Def Con from 1.02565e-005 to 1.02565e-005
Heightened Def Con from 1.02565e-005 to 1.02565e-005
Heightened Def Con from 1.02565e-005 to 1.02565e-005
Heightened Def Con from 1.02565e-005 to 1.02565e-005
Heightened Def Con from 1.02565e-005 to 1.02565e-005
Heightened Def Con from 1.02565e-005 to 1.02565e-005
Heightened Def Con from 1.02565e-005 to 1.02565e-005
Heightened Def Con from 1.02565e-005 to 1.02565e-005
Heightened Def Con from 1.02565e-005 to 1.02565e-005
Heightened Def Con from 1.02565e-005 to 1.02565e-005
Heightened Def Con from 1.02565e-005 to 1.02565e-005
Heightened Def Con from 1.02565e-005 to 1.02565e-005
Heightened Def Con from 1.02565e-005 to 1.02565e-005
Heightened Def Con from 1.02565e-005 to 1.02565e-005
Heightened Def Con from 1.02565e-005 to 1.02565e-005
Heightened Def Con from 1.02565e-005 to 1.02565e-005
Heightened Def Con from 1.02565e-005 to 1.02565e-005
Heightened Def Con from 1.02565e-005 to 1.02565e-005
Heightened Def Con from 1.02565e-005 to 1.02565e-005
Heightened Def Con from 1.02565e-005 to 1.02565e-005
Heightened Def Con from 1.02565e-005 to 1.02565e-005
Heightened Def Con from 1.02565e-005 to 1.02565e-005
Heightened Def Con from 1.02565e-005 to 1.02565e-005
Heightened Def Con from 1.02565e-005 to 1.02565e-005
Heightened Def Con from 1.02565e-005 to 1.02565e-005
Heightened Def Con from 1.02565e-005 to 1.02574e-005
Heightened Def Con from 1.03047e-005 to 1.03097e-005
Heightened Def Con from 1.14019e-005 to 1.14039e-005
Heightened Def Con from 1.22913e-005 to 1.22953e-005
Heightened Def Con from 1.24001e-005 to 1.24061e-005
Heightened Def Con from 1.25919e-005 to 1.25921e-005
Heightened Def Con from 1.25921e-005 to 1.26001e-005
Heightened Def Con from 1.27287e-005 to 1.27317e-005
Heightened Def Con from 1.27493e-005 to 1.27493e-005
Heightened Def Con from 1.27493e-005 to 1.27493e-005
Heightened Def Con from 1.27493e-005 to 1.27493e-005
Heightened Def Con from 1.27493e-005 to 1.27493e-005
Heightened Def Con from 1.27493e-005 to 1.27493e-005
Heightened Def Con from 1.27493e-005 to 1.27493e-005
Heightened Def Con from 1.27493e-005 to 1.27493e-005
Heightened Def Con from 1.27493e-005 to 1.27493e-005
Heightened Def Con from 1.27493e-005 to 1.27493e-005
Heightened Def Con from 1.27493e-005 to 1.27493e-005
Heightened Def Con from 1.27493e-005 to 1.27493e-005
Heightened Def Con from 1.27493e-005 to 1.27493e-005
Heightened Def Con from 1.27493e-005 to 1.27493e-005
Heightened Def Con from 1.27493e-005 to 1.27493e-005
Heightened Def Con from 1.27493e-005 to 1.27493e-005
Heightened Def Con from 1.27493e-005 to 1.27493e-005
Heightened Def Con from 1.27493e-005 to 1.27493e-005
Heightened Def Con from 1.27493e-005 to 1.27493e-005
Heightened Def Con from 1.27493e-005 to 1.27493e-005
Heightened Def Con from 1.27493e-005 to 1.27493e-005
Heightened Def Con from 1.27493e-005 to 1.27493e-005
Heightened Def Con from 1.27493e-005 to 1.27493e-005
Heightened Def Con from 1.27493e-005 to 1.27493e-005
Heightened Def Con from 1.27493e-005 to 1.27493e-005
Heightened Def Con from 1.27493e-005 to 1.27493e-005
Heightened Def Con from 1.27493e-005 to 1.27493e-005
Heightened Def Con from 1.27493e-005 to 1.27493e-005
Heightened Def Con from 1.27493e-005 to 1.27493e-005
Heightened Def Con from 1.27493e-005 to 1.27493e-005
Heightened Def Con from 1.27493e-005 to 1.27493e-005
Heightened Def Con from 1.27493e-005 to 1.27493e-005
Heightened Def Con from 1.27493e-005 to 1.27493e-005
Heightened Def Con from 1.27493e-005 to 1.27493e-005
Heightened Def Con from 1.27493e-005 to 1.27493e-005
Heightened Def Con from 1.27493e-005 to 1.27493e-005
Heightened Def Con from 1.27493e-005 to 1.27493e-005
Heightened Def Con from 1.27493e-005 to 1.27493e-005
Heightened Def Con from 1.27493e-005 to 1.27493e-005
Heightened Def Con from 1.27493e-005 to 1.27493e-005
Heightened Def Con from 1.27493e-005 to 1.27493e-005
Heightened Def Con from 1.27493e-005 to 1.27493e-005
Heightened Def Con from 1.27493e-005 to 1.27493e-005
Heightened Def Con from 1.27493e-005 to 1.27493e-005
Heightened Def Con from 1.27493e-005 to 1.27493e-005
Heightened Def Con from 1.27493e-005 to 1.27493e-005
Heightened Def Con from 1.27493e-005 to 1.27493e-005
Heightened Def Con from 1.27493e-005 +to 1.27493e-005
Heightened Def Con from 1.27493e-005 to 1.27493e-005
Heightened Def Con from 1.27493e-005 to 1.27493e-005
Heightened Def Con from 1.27493e-005 to 1.27493e-005
Heightened Def Con from 1.27493e-005 to 1.27493e-005
Heightened Def Con from 1.27493e-005 to 1.27493e-005
Heightened Def Con from 1.27493e-005 to 1.27493e-005
Heightened Def Con from 1.27493e-005 to 1.27493e-005
Heightened Def Con from 1.27493e-005 to 1.27493e-005
Heightened Def Con from 1.27493e-005 to 1.27493e-005
Heightened Def Con from 1.27493e-005 to 1.27493e-005
Heightened Def Con from 1.27493e-005 to 1.27493e-005
Heightened Def Con from 1.27493e-005 to 1.27493e-005
Heightened Def Con from 1.27493e-005 to 1.27493e-005
Heightened Def Con from 1.27493e-005 to 1.27493e-005
Heightened Def Con from 1.27493e-005 to 1.27493e-005
Heightened Def Con from 1.27493e-005 to 1.27493e-005
Heightened Def Con from 1.27493e-005 to 1.27493e-005
Heightened Def Con from 1.27493e-005 to 1.27493e-005
Heightened Def Con from 1.27493e-005 to 1.27493e-005
Heightened Def Con from 1.27493e-005 to 1.27493e-005
Heightened Def Con from 1.27493e-005 to 1.27493e-005
Heightened Def Con from 1.27493e-005 to 1.27493e-005
Heightened Def Con from 1.27493e-005 to 1.27493e-005
Heightened Def Con from 1.27493e-005 to 1.27493e-005
Heightened Def Con from 1.27493e-005 to 1.27493e-005
Heightened Def Con from 1.27493e-005 to 1.27493e-005
Heightened Def Con from 1.27493e-005 to 1.27493e-005
Heightened Def Con from 1.27493e-005 to 1.27493e-005
Heightened Def Con from 1.27493e-005 to 1.27493e-005
Heightened Def Con from 1.27493e-005 to 1.27493e-005
Heightened Def Con from 1.27493e-005 to 1.27493e-005
Heightened Def Con from 1.27493e-005 to 1.27493e-005
Heightened Def Con from 1.27493e-005 to 1.27493e-005
Heightened Def Con from 1.27493e-005 to 1.27493e-005
Heightened Def Con from 1.27493e-005 to 1.27494e-005
Heightened Def Con from 1.27494e-005 to 1.27494e-005
Heightened Def Con from 1.27494e-005 to 1.27494e-005
Heightened Def Con from 1.27494e-005 to 1.27494e-005
Heightened Def Con from 1.27494e-005 to 1.27494e-005
Heightened Def Con from 1.27494e-005 to 1.27494e-005
Heightened Def Con from 1.27494e-005 to 1.27494e-005
Heightened Def Con from 1.27494e-005 to 1.27494e-005
Heightened Def Con from 1.27494e-005 to 1.27494e-005
Heightened Def Con from 1.27494e-005 to 1.27494e-005
Heightened Def Con from 1.27494e-005 to 1.27494e-005
Heightened Def Con from 1.27494e-005 to 1.27494e-005
Heightened Def Con from 1.27494e-005 to 1.27494e-005
Heightened Def Con from 1.27494e-005 to 1.27494e-005
Heightened Def Con from 1.27494e-005 to 1.27494e-005
Heightened Def Con from 1.27494e-005 to 1.27494e-005
Heightened Def Con from 1.27494e-005 to 1.27494e-005
Heightened Def Con from 1.27494e-005 to 1.27494e-005
Heightened Def Con from 1.27494e-005 to 1.27494e-005
Heightened Def Con from 1.27494e-005 to 1.27494e-005
Heightened Def Con from 1.27494e-005 to 1.27494e-005
Heightened Def Con from 1.27494e-005 to 1.27494e-005
Heightened Def Con from 1.27494e-005 to 1.27494e-005
Heightened Def Con from 1.27494e-005 to 1.27494e-005
Heightened Def Con from 1.27494e-005 to 1.27494e-005
Heightened Def Con from 1.27494e-005 to 1.27494e-005
Heightened Def Con from 1.27494e-005 to 1.27494e-005
Heightened Def Con from 1.27494e-005 to 1.27494e-005
Heightened Def Con from 1.27494e-005 to 1.27494e-005
Heightened Def Con from 1.27494e-005 to 1.27494e-005
Heightened Def Con from 1.27494e-005 to 1.27494e-005
Heightened Def Con from 1.27494e-005 to 1.27494e-005
Heightened Def Con from 1.27494e-005 to 1.27494e-005
Heightened Def Con from 1.27494e-005 to 1.27494e-005
Heightened Def Con from 1.27494e-005 to 1.27494e-005
Heightened Def Con from 1.27494e-005 to 1.27494e-005
Heightened Def Con from 1.27494e-005 to 1.27494e-005
Heightened Def Con from 1.27494e-005 to 1.27494e-005
Heightened Def Con from 1.27494e-005 to 1.27494e-005
Heightened Def Con from 1.27494e-005 to 1.27494e-005
Heightened Def Con from 1.27494e-005 to 1.27494e-005
Heightened Def Con from 1.27494e-005 to 1.27494e-005
Heightened Def Con from 1.27494e-005 to 1.27494e-005
Heightened Def Con from 1.27494e-005 to 1.27494e-005
Heightened Def Con from 1.27494e-005 to 1.27494e-005
Heightened Def Con from 1.27494e-005 to 1.27494e-005
Heightened Def Con from 1.27494e-005 to 1.27494e-005
Heightened Def Con from 1.27494e-005 to 1.27494e-005
Heightened Def Con from 1.27494e-005 to 1.27494e-005
Heightened Def Con from 1.27494e-005 to 1.27494e-005
Heightened Def Con from 1.27494e-005 to 1.27494e-005
Heightened Def Con from 1.27494e-005 to 1.27494e-005
Heightened Def Con from 1.27494e-005 to 1.27494e-005
Heightened Def Con from 1.27494e-005 to 1.27494e-005
Heightened Def Con from 1.27494e-005 to 1.27494e-005
Heightened Def Con from 1.27494e-005 to 1.27494e-005
Heightened Def Con from 1.27494e-005 to 1.27494e-005
Heightened Def Con from 1.27494e-005 to 1.27494e-005
Heightened Def Con from 1.27494e-005 to 1.27494e-005
Heightened Def Con from 1.27494e-005 to 1.27494e-005
Heightened Def Con from 1.27494e-005 to 1.27494e-005
Heightened Def Con from 1.27494e-005 to 1.27494e-005
Heightened Def Con from 1.27494e-005 to 1.27494e-005
Heightened Def Con from 1.27494e-005 to 1.27494e-005
Heightened Def Con from 1.27494e-005 to 1.27494e-005
Heightened Def Con from 1.27494e-005 to 1.27494e-005
Heightened Def Con from 1.27494e-005 to 1.27494e-005
Heightened Def Con from 1.27494e-005 to 1.27494e-005
Heightened Def Con from 1.27494e-005 to 1.27494e-005
Heightened Def Con from 1.27494e-005 to 1.27494e-005
Heightened Def Con from 1.27494e-005 to 1.27494e-005
Heightened Def Con from 1.27494e-005 to 1.27494e-005
Heightened Def Con from 1.27494e-005 to 1.27494e-005
Heightened Def Con from 1.27494e-005 to 1.27494e-005
Heightened Def Con from 1.27494e-005 to 1.27494e-005
Heightened Def Con from 1.27494e-005 to 1.27494e-005
Heightened Def Con from 1.27494e-005 to 1.27494e-005
Heightened Def Con from 1.27494e-005 to 1.27494e-005
Heightened Def Con from 1.27494e-005 to 1.27494e-005
Heightened Def Con from 1.27494e-005 to 1.27494e-005
Heightened Def Con from 1.27494e-005 to 1.27494e-005
Heightened Def Con from 1.27494e-005 to 1.27494e-005
Heightened Def Con from 1.27495e-005 to 1.27495e-005
Heightened Def Con from 1.27495e-005 to 1.27495e-005
Heightened Def Con from 1.27495e-005 to 1.27495e-005
Heightened Def Con from 1.27495e-005 to 1.27495e-005
Heightened Def Con from 1.27495e-005 to 1.27495e-005
Heightened Def Con from 1.27495e-005 to 1.27495e-005
Heightened Def Con from 1.27495e-005 to 1.27495e-005
Heightened Def Con from 1.27495e-005 to 1.27495e-005
Heightened Def Con from 1.27495e-005 to 1.27495e-005
Heightened Def Con from 1.27495e-005 to 1.27495e-005
Heightened Def Con from 1.27495e-005 to 1.27495e-005
Heightened Def Con from 1.27495e-005 to 1.27495e-005
Heightened Def Con from 1.27495e-005 to 1.27495e-005
Heightened Def Con from 1.27495e-005 to 1.27495e-005
Heightened Def Con from 1.27495e-005 to 1.27495e-005
Heightened Def Con from 1.27495e-005 to 1.27495e-005
Heightened Def Con from 1.27495e-005 to 1.27495e-005
Heightened Def Con from 1.27495e-005 to 1.27495e-005
Heightened Def Con from 1.27495e-005 to 1.27495e-005
Heightened Def Con from 1.27495e-005 to 1.27495e-005
Heightened Def Con from 1.27495e-005 to 1.27495e-005
Heightened Def Con from 1.27495e-005 to 1.27495e-005
Heightened Def Con from 1.27495e-005 to 1.27495e-005
Heightened Def Con from 1.27495e-005 to 1.27495e-005
Heightened Def Con from 1.27495e-005 to 1.27495e-005
Heightened Def Con from 1.27495e-005 to 1.27495e-005
Heightened Def Con from 1.27495e-005 to 1.27495e-005
Heightened Def Con from 1.27495e-005 to 1.27495e-005
Heightened Def Con from 1.27495e-005 to 1.27495e-005
Heightened Def Con from 1.27495e-005 to 1.27495e-005
Heightened Def Con from 1.27495e-005 to 1.27495e-005
Heightened Def Con from 1.27495e-005 to 1.27495e-005
Heightened Def Con from 1.27495e-005 to 1.27495e-005
Heightened Def Con from 1.27495e-005 to 1.27495e-005
Heightened Def Con from 1.27495e-005 to 1.27495e-005
Heightened Def Con from 1.27495e-005 to 1.27495e-005
Heightened Def Con from 1.27495e-005 to 1.27495e-005
Heightened Def Con from 1.27495e-005 to 1.27495e-005
Heightened Def Con from 1.27495e-005 to 1.27495e-005
Heightened Def Con from 1.27495e-005 to 1.27495e-005
Heightened Def Con from 1.27495e-005 to 1.27495e-005
Heightened Def Con from 1.27495e-005 to 1.27495e-005
Heightened Def Con from 1.27495e-005 to 1.27495e-005
Heightened Def Con from 1.27495e-005 to 1.27495e-005
Heightened Def Con from 1.27495e-005 to 1.27495e-005
Heightened Def Con from 1.27495e-005 to 1.27495e-005
Heightened Def Con from 1.27495e-005 to 1.27495e-005
Heightened Def Con from 1.27495e-005 to 1.27495e-005
Heightened Def Con from 1.27495e-005 to 1.27495e-005
Heightened Def Con from 1.27495e-005 to 1.27495e-005
Heightened Def Con from 1.27495e-005 to 1.27495e-005
Heightened Def Con from 1.27495e-005 to 1.27495e-005
Heightened Def Con from 1.27495e-005 to 1.27495e-005
Heightened Def Con from 1.27495e-005 to 1.27495e-005
Heightened Def Con from 1.27495e-005 to 1.27495e-005
Heightened Def Con from 1.27495e-005 to 1.27495e-005
Heightened Def Con from 1.27495e-005 to 1.27495e-005
Heightened Def Con from 1.27495e-005 to 1.27496e-005
Heightened Def Con from 1.27496e-005 to 1.27496e-005
Heightened Def Con from 1.27496e-005 to 1.27496e-005
Heightened Def Con from 1.27496e-005 to 1.27496e-005
Heightened Def Con from 1.27496e-005 to 1.27496e-005
Heightened Def Con from 1.27496e-005 to 1.27496e-005
Heightened Def Con from 1.27496e-005 to 1.27496e-005
Heightened Def Con from 1.27496e-005 to 1.27496e-005
Heightened Def Con from 1.27496e-005 to 1.27496e-005
Heightened Def Con from 1.27496e-005 to 1.27496e-005
Heightened Def Con from 1.27496e-005 to 1.27496e-005
Heightened Def Con from 1.27496e-005 to 1.27496e-005
Heightened Def Con from 1.27496e-005 to 1.27496e-005
Heightened Def Con from 1.27496e-005 to 1.27496e-005
Heightened Def Con from 1.27496e-005 to 1.27496e-005
Heightened Def Con from 1.27496e-005 to 1.27496e-005
Heightened Def Con from 1.27496e-005 to 1.27496e-005
Heightened Def Con from 1.27496e-005 to 1.27496e-005
Heightened Def Con from 1.27496e-005 to 1.27496e-005
Heightened Def Con from 1.27496e-005 to 1.27496e-005
Heightened Def Con from 1.27496e-005 to 1.27496e-005
Heightened Def Con from 1.27496e-005 to 1.27496e-005
Heightened Def Con from 1.27496e-005 to 1.27496e-005
Heightened Def Con from 1.27496e-005 to 1.27496e-005
Heightened Def Con from 1.27496e-005 to 1.27496e-005
Heightened Def Con from 1.27496e-005 to 1.27496e-005
Heightened Def Con from 1.27496e-005 to 1.27496e-005
Heightened Def Con from 1.27496e-005 to 1.27496e-005
Heightened Def Con from 1.27496e-005 to 1.27496e-005
Heightened Def Con from 1.27496e-005 to 1.27496e-005
Heightened Def Con from 1.27496e-005 to 1.27496e-005
Heightened Def Con from 1.27496e-005 to 1.27496e-005
Heightened Def Con from 1.27496e-005 to 1.27496e-005
Heightened Def Con from 1.27496e-005 to 1.27496e-005
Heightened Def Con from 1.27496e-005 to 1.27496e-005
Heightened Def Con from 1.27496e-005 to 1.27496e-005
Heightened Def Con from 1.27496e-005 to 1.27496e-005
Heightened Def Con from 1.27496e-005 to 1.27496e-005
Heightened Def Con from 1.27496e-005 to 1.27496e-005
Heightened Def Con from 1.27496e-005 to 1.27496e-005
Heightened Def Con from 1.27496e-005 to 1.27496e-005
Heightened Def Con from 1.27496e-005 to 1.27496e-005
Heightened Def Con from 1.27496e-005 to 1.27496e-005
Heightened Def Con from 1.27496e-005 to 1.27496e-005
Heightened Def Con from 1.27496e-005 to 1.27496e-005
Heightened Def Con from 1.27496e-005 to 1.27496e-005
Heightened Def Con from 1.27496e-005 to 1.27496e-005
Heightened Def Con from 1.27496e-005 to 1.27496e-005
Heightened Def Con from 1.27496e-005 to 1.27496e-005
Heightened Def Con from 1.27496e-005 to 1.27496e-005
Heightened Def Con from 1.27496e-005 to 1.27496e-005
Heightened Def Con from 1.27496e-005 to 1.27496e-005
Heightened Def Con from 1.27496e-005 to 1.27496e-005
Heightened Def Con from 1.27496e-005 to 1.27496e-005
Heightened Def Con from 1.27496e-005 to 1.27496e-005
Heightened Def Con from 1.27496e-005 to 1.27496e-005
Heightened Def Con from 1.27496e-005 to 1.27496e-005
Heightened Def Con from 1.27496e-005 to 1.27496e-005
Heightened Def Con from 1.27496e-005 to 1.27496e-005
Heightened Def Con from 1.27496e-005 to 1.27497e-005
Heightened Def Con from 1.27497e-005 to 1.27497e-005
Heightened Def Con from 1.27497e-005 to 1.27497e-005
Heightened Def Con from 1.27497e-005 to 1.27497e-005
Heightened Def Con from 1.27497e-005 to 1.27497e-005
Heightened Def Con from 1.27497e-005 to 1.27497e-005
Heightened Def Con from 1.27497e-005 to 1.27497e-005
Heightened Def Con from 1.27497e-005 to 1.27497e-005
Heightened Def Con from 1.27497e-005 to 1.27497e-005
Heightened Def Con from 1.27497e-005 to 1.27497e-005
Heightened Def Con from 1.27497e-005 to 1.27497e-005
Heightened Def Con from 1.27497e-005 to 1.27497e-005
Heightened Def Con from 1.27497e-005 to 1.27497e-005
Heightened Def Con from 1.27497e-005 to 1.27497e-005
Heightened Def Con from 1.27497e-005 to 1.27497e-005
Heightened Def Con from 1.27497e-005 to 1.27497e-005
Heightened Def Con from 1.27497e-005 to 1.27497e-005
Heightened Def Con from 1.27497e-005 to 1.27497e-005
Heightened Def Con from 1.27497e-005 to 1.27497e-005
Heightened Def Con from 1.27497e-005 to 1.27497e-005
Heightened Def Con from 1.27497e-005 to 1.27497e-005
Heightened Def Con from 1.27497e-005 to 1.27497e-005
Heightened Def Con from 1.27497e-005 to 1.27497e-005
Heightened Def Con from 1.27497e-005 to 1.27497e-005
Heightened Def Con from 1.27497e-005 to 1.27497e-005
Heightened Def Con from 1.27497e-005 to 1.27497e-005
Heightened Def Con from 1.27497e-005 to 1.27497e-005
Heightened Def Con from 1.27497e-005 to 1.27497e-005
Heightened Def Con from 1.27497e-005 to 1.27497e-005
Heightened Def Con from 1.27497e-005 to 1.27497e-005
Heightened Def Con from 1.27497e-005 to 1.27497e-005
Heightened Def Con from 1.27497e-005 to 1.27497e-005
Heightened Def Con from 1.27497e-005 to 1.27497e-005
Heightened Def Con from 1.27497e-005 to 1.27497e-005
Heightened Def Con from 1.27497e-005 to 1.27497e-005
Heightened Def Con from 1.27497e-005 to 1.27497e-005
Heightened Def Con from 1.27497e-005 to 1.27497e-005
Heightened Def Con from 1.27497e-005 to 1.27497e-005
Heightened Def Con from 1.27497e-005 to 1.27497e-005
Heightened Def Con from 1.27497e-005 to 1.27497e-005
Heightened Def Con from 1.27497e-005 to 1.27497e-005
Heightened Def Con from 1.27497e-005 to 1.27497e-005
Heightened Def Con from 1.27497e-005 to 1.27497e-005
Heightened Def Con from 1.27497e-005 to 1.27497e-005
Heightened Def Con from 1.27497e-005 to 1.27497e-005
Heightened Def Con from 1.27497e-005 to 1.27497e-005
Heightened Def Con from 1.27497e-005 to 1.27497e-005
Heightened Def Con from 1.27497e-005 to 1.27497e-005
Heightened Def Con from 1.27497e-005 to 1.27497e-005
Heightened Def Con from 1.27497e-005 to 1.27497e-005
Heightened Def Con from 1.27497e-005 to 1.27497e-005
Heightened Def Con from 1.27497e-005 to 1.27497e-005
Heightened Def Con from 1.27497e-005 to 1.27497e-005
Heightened Def Con from 1.27497e-005 to 1.27497e-005
Heightened Def Con from 1.27497e-005 to 1.27497e-005
Heightened Def Con from 1.27497e-005 to 1.27497e-005
Heightened Def Con from 1.27497e-005 to 1.27497e-005
Heightened Def Con from 1.27497e-005 to 1.27497e-005
Heightened Def Con from 1.27497e-005 to 1.27497e-005
Heightened Def Con from 1.27497e-005 to 1.27497e-005
Heightened Def Con from 1.27497e-005 to 1.27497e-005
Heightened Def Con from 1.27497e-005 to 1.27497e-005
Heightened Def Con from 1.27497e-005 to 1.27497e-005
Heightened Def Con from 1.27497e-005 to 1.27497e-005
Heightened Def Con from 1.27497e-005 to 1.27497e-005
Heightened Def Con from 1.27497e-005 to 1.27497e-005
Heightened Def Con from 1.27497e-005 to 1.27497e-005
Heightened Def Con from 1.27497e-005 to 1.27497e-005
Heightened Def Con from 1.27497e-005 to 1.27497e-005
Heightened Def Con from 1.27497e-005 to 1.27497e-005
Heightened Def Con from 1.27497e-005 to 1.27497e-005
Heightened Def Con from 1.27497e-005 to 1.27497e-005
Heightened Def Con from 1.27497e-005 to 1.27497e-005
Heightened Def Con from 1.27497e-005 to 1.27497e-005
Heightened Def Con from 1.27497e-005 to 1.27497e-005
Heightened Def Con from 1.27497e-005 to 1.27497e-005
Heightened Def Con from 1.27497e-005 to 1.27497e-005
Heightened Def Con from 1.27497e-005 to 1.27497e-005
Heightened Def Con from 1.27497e-005 to 1.27497e-005
Heightened Def Con from 1.27497e-005 to 1.27497e-005
Heightened Def Con from 1.27497e-005 to 1.27497e-005
Heightened Def Con from 1.27497e-005 to 1.27497e-005
Heightened Def Con from 1.27497e-005 to 1.27497e-005
Heightened Def Con from 1.27497e-005 to 1.27497e-005
Heightened Def Con from 1.27497e-005 to 1.27497e-005
Heightened Def Con from 1.27498e-005 to 1.27498e-005
Heightened Def Con from 1.27498e-005 to 1.27498e-005
Heightened Def Con from 1.27498e-005 to 1.27498e-005
Heightened Def Con from 1.27498e-005 to 1.27498e-005
Heightened Def Con from 1.27498e-005 to 1.27498e-005
Heightened Def Con from 1.27498e-005 to 1.27498e-005
Heightened Def Con from 1.27498e-005 to 1.27498e-005
Heightened Def Con from 1.27498e-005 to 1.27498e-005
Heightened Def Con from 1.27498e-005 to 1.27498e-005
Heightened Def Con from 1.27498e-005 to 1.27498e-005
Heightened Def Con from 1.27498e-005 to 1.27498e-005
Heightened Def Con from 1.27498e-005 to 1.27498e-005
Heightened Def Con from 1.27498e-005 to 1.27498e-005
Heightened Def Con from 1.27498e-005 to 1.27498e-005
Heightened Def Con from 1.27498e-005 to 1.27498e-005
Heightened Def Con from 1.27498e-005 to 1.27498e-005
Heightened Def Con from 1.27498e-005 to 1.27498e-005
Heightened Def Con from 1.27498e-005 to 1.27498e-005
Heightened Def Con from 1.27498e-005 to 1.27498e-005
Heightened Def Con from 1.27498e-005 to 1.27498e-005
Heightened Def Con from 1.27498e-005 to 1.27498e-005
Heightened Def Con from 1.27498e-005 to 1.27498e-005
Heightened Def Con from 1.27498e-005 to 1.27498e-005
Heightened Def Con from 1.27498e-005 to 1.27498e-005
Heightened Def Con from 1.27498e-005 to 1.27498e-005
Heightened Def Con from 1.27498e-005 to 1.27498e-005
Heightened Def Con from 1.27498e-005 to 1.27498e-005
Heightened Def Con from 1.27498e-005 to 1.27498e-005
Heightened Def Con from 1.27498e-005 to 1.27498e-005
Heightened Def Con from 1.27498e-005 to 1.27498e-005
Heightened Def Con from 1.27498e-005 to 1.27498e-005
Heightened Def Con from 1.27498e-005 to 1.27498e-005
Heightened Def Con from 1.27498e-005 to 1.27498e-005
Heightened Def Con from 1.27498e-005 to 1.27498e-005
Heightened Def Con from 1.27498e-005 to 1.27498e-005
Heightened Def Con from 1.27498e-005 to 1.27498e-005
Heightened Def Con from 1.27498e-005 to 1.27498e-005
Heightened Def Con from 1.27498e-005 to 1.27498e-005
Heightened Def Con from 1.27498e-005 to 1.27498e-005
Heightened Def Con from 1.27498e-005 to 1.27498e-005
Heightened Def Con from 1.27498e-005 to 1.27498e-005
Heightened Def Con from 1.27498e-005 to 1.27498e-005
Heightened Def Con from 1.27498e-005 to 1.27498e-005
Heightened Def Con from 1.27498e-005 to 1.27498e-005
Heightened Def Con from 1.27498e-005 to 1.27498e-005
Heightened Def Con from 1.27498e-005 to 1.27498e-005
Heightened Def Con from 1.27498e-005 to 1.27498e-005
Heightened Def Con from 1.27498e-005 to 1.27498e-005
Heightened Def Con from 1.27498e-005 to 1.27498e-005
Heightened Def Con from 1.27498e-005 to 1.27498e-005
Heightened Def Con from 1.27498e-005 to 1.27498e-005
Heightened Def Con from 1.27498e-005 to 1.27498e-005
Heightened Def Con from 1.27498e-005 to 1.27498e-005
Heightened Def Con from 1.27498e-005 to 1.27498e-005
Heightened Def Con from 1.27498e-005 to 1.27498e-005
Heightened Def Con from 1.27498e-005 to 1.27498e-005
Heightened Def Con from 1.27498e-005 to 1.27498e-005
Heightened Def Con from 1.27498e-005 to 1.27498e-005
Heightened Def Con from 1.27498e-005 to 1.27498e-005
Heightened Def Con from 1.27498e-005 to 1.27498e-005
Heightened Def Con from 1.27498e-005 to 1.27498e-005
Heightened Def Con from 1.27498e-005 to 1.27498e-005
Heightened Def Con from 1.27499e-005 to 1.27499e-005
Heightened Def Con from 1.27499e-005 to 1.27499e-005
Heightened Def Con from 1.27499e-005 to 1.27499e-005
Heightened Def Con from 1.27499e-005 to 1.27499e-005
Heightened Def Con from 1.27499e-005 to 1.27499e-005
Heightened Def Con from 1.27499e-005 to 1.27499e-005
Heightened Def Con from 1.27499e-005 to 1.27499e-005
Heightened Def Con from 1.27499e-005 to 1.27499e-005
Heightened Def Con from 1.27499e-005 to 1.27499e-005
Heightened Def Con from 1.27499e-005 to 1.27499e-005
Heightened Def Con from 1.27499e-005 to 1.27499e-005
Heightened Def Con from 1.27499e-005 to 1.27499e-005
Heightened Def Con from 1.27499e-005 to 1.27499e-005
Heightened Def Con from 1.27499e-005 to 1.27499e-005
Heightened Def Con from 1.27499e-005 to 1.27499e-005
Heightened Def Con from 1.27499e-005 to 1.27499e-005
Heightened Def Con from 1.27499e-005 to 1.27499e-005
Heightened Def Con from 1.27499e-005 to 1.27499e-005
Heightened Def Con from 1.27499e-005 to 1.27499e-005
Heightened Def Con from 1.27499e-005 to 1.27499e-005
Heightened Def Con from 1.27499e-005 to 1.27499e-005
Heightened Def Con from 1.27499e-005 to 1.27499e-005
Heightened Def Con from 1.27499e-005 to 1.27499e-005
Heightened Def Con from 1.27499e-005 to 1.27499e-005
Heightened Def Con from 1.27499e-005 to 1.27499e-005
Heightened Def Con from 1.27499e-005 to 1.27499e-005
Heightened Def Con from 1.27499e-005 to 1.27499e-005
Heightened Def Con from 1.27499e-005 to 1.27499e-005
Heightened Def Con from 1.27499e-005 to 1.27499e-005
Heightened Def Con from 1.27499e-005 to 1.27499e-005
Heightened Def Con from 1.27499e-005 to 1.27499e-005
Heightened Def Con from 1.27499e-005 to 1.27499e-005
Heightened Def Con from 1.27499e-005 to 1.27499e-005
Heightened Def Con from 1.27499e-005 to 1.27499e-005
Heightened Def Con from 1.27499e-005 to 1.27499e-005
Heightened Def Con from 1.27499e-005 to 1.27499e-005
Heightened Def Con from 1.27499e-005 to 1.27499e-005
Heightened Def Con from 1.27499e-005 to 1.27499e-005
Heightened Def Con from 1.27499e-005 to 1.27499e-005
Heightened Def Con from 1.27499e-005 to 1.27499e-005
Heightened Def Con from 1.27499e-005 to 1.27499e-005
Heightened Def Con from 1.27499e-005 to 1.27499e-005
Heightened Def Con from 1.27499e-005 to 1.27499e-005
Heightened Def Con from 1.27499e-005 to 1.27499e-005
Heightened Def Con from 1.27499e-005 to 1.27499e-005
Heightened Def Con from 1.27499e-005 to 1.27499e-005
Heightened Def Con from 1.27499e-005 to 1.27499e-005
Heightened Def Con from 1.27499e-005 to 1.27499e-005
Heightened Def Con from 1.27499e-005 to 1.27499e-005
Heightened Def Con from 1.27499e-005 to 1.27499e-005
Heightened Def Con from 1.27499e-005 to 1.27499e-005
Heightened Def Con from 1.27499e-005 to 1.27499e-005
Heightened Def Con from 1.27499e-005 to 1.27499e-005
Heightened Def Con from 1.27499e-005 to 1.27499e-005
Heightened Def Con from 1.27499e-005 to 1.27499e-005
Heightened Def Con from 1.27499e-005 to 1.275e-005
Heightened Def Con from 1.275e-005 to 1.275e-005
Heightened Def Con from 1.275e-005 to 1.275e-005
Heightened Def Con from 1.275e-005 to 1.275e-005
Heightened Def Con from 1.275e-005 to 1.275e-005
Heightened Def Con from 1.275e-005 to 1.275e-005
Heightened Def Con from 1.275e-005 to 1.275e-005
Heightened Def Con from 1.275e-005 to 1.275e-005
Heightened Def Con from 1.275e-005 to 1.275e-005
Heightened Def Con from 1.275e-005 to 1.275e-005
Heightened Def Con from 1.275e-005 to 1.275e-005
Heightened Def Con from 1.275e-005 to 1.275e-005
Heightened Def Con from 1.275e-005 to 1.275e-005
Heightened Def Con from 1.275e-005 to 1.275e-005
Heightened Def Con from 1.275e-005 to 1.275e-005
Heightened Def Con from 1.275e-005 to 1.275e-005
Heightened Def Con from 1.275e-005 to 1.275e-005
Heightened Def Con from 1.275e-005 to 1.275e-005
Heightened Def Con from 1.275e-005 to 1.275e-005
Heightened Def Con from 1.275e-005 to 1.275e-005
Heightened Def Con from 1.275e-005 to 1.275e-005
Heightened Def Con from 1.275e-005 to 1.275e-005
Heightened Def Con from 1.275e-005 to 1.275e-005
Heightened Def Con from 1.275e-005 to 1.275e-005
Heightened Def Con from 1.275e-005 to 1.275e-005
Heightened Def Con from 1.275e-005 to 1.275e-005
Heightened Def Con from 1.275e-005 to 1.275e-005
Heightened Def Con from 1.275e-005 to 1.275e-005
Heightened Def Con from 1.275e-005 to 1.275e-005
Heightened Def Con from 1.275e-005 to 1.275e-005
Heightened Def Con from 1.275e-005 to 1.275e-005
Heightened Def Con from 1.275e-005 to 1.275e-005
Heightened Def Con from 1.275e-005 to 1.275e-005
Heightened Def Con from 1.275e-005 to 1.275e-005
Heightened Def Con from 1.275e-005 to 1.275e-005
Heightened Def Con from 1.275e-005 to 1.275e-005
Heightened Def Con from 1.275e-005 to 1.275e-005
Heightened Def Con from 1.275e-005 to 1.275e-005
Heightened Def Con from 1.275e-005 to 1.275e-005
Heightened Def Con from 1.275e-005 to 1.275e-005
Heightened Def Con from 1.275e-005 to 1.275e-005
Heightened Def Con from 1.275e-005 to 1.275e-005
Heightened Def Con from 1.275e-005 to 1.275e-005
Heightened Def Con from 1.275e-005 to 1.275e-005
Heightened Def Con from 1.275e-005 to 1.275e-005
Heightened Def Con from 1.275e-005 to 1.275e-005
Heightened Def Con from 1.275e-005 to 1.275e-005
Heightened Def Con from 1.275e-005 to 1.275e-005
Heightened Def Con from 1.275e-005 to 1.275e-005
Heightened Def Con from 1.275e-005 to 1.275e-005
Heightened Def Con from 1.275e-005 to 1.275e-005
Heightened Def Con from 1.275e-005 to 1.275e-005
Heightened Def Con from 1.275e-005 to 1.275e-005
Heightened Def Con from 1.275e-005 to 1.275e-005
Heightened Def Con from 1.275e-005 to 1.275e-005
Heightened Def Con from 1.275e-005 to 1.275e-005
Heightened Def Con from 1.275e-005 to 1.275e-005
Heightened Def Con from 1.275e-005 to 1.275e-005
Heightened Def Con from 1.275e-005 to 1.275e-005
Heightened Def Con from 1.275e-005 to 1.275e-005
Heightened Def Con from 1.275e-005 to 1.275e-005
Heightened Def Con from 1.275e-005 to 1.275e-005
Heightened Def Con from 1.275e-005 to 1.275e-005
Heightened Def Con from 1.275e-005 to 1.275e-005
Heightened Def Con from 1.275e-005 to 1.275e-005
Heightened Def Con from 1.275e-005 to 1.275e-005
Heightened Def Con from 1.275e-005 to 1.275e-005
Heightened Def Con from 1.275e-005 to 1.275e-005
Heightened Def Con from 1.275e-005 to 1.27502e-005
Heightened Def Con from 1.27502e-005 to 1.27582e-005
Heightened Def Con from 1.30649e-005 to 1.30679e-005
Heightened Def Con from 1.32558e-005 to 1.32588e-005
Heightened Def Con from 1.32648e-005 to 1.32651e-005
Heightened Def Con from 1.32654e-005 to 1.32665e-005
Heightened Def Con from 1.32665e-005 to 1.32674e-005
Heightened Def Con from 1.32676e-005 to 1.32716e-005
Heightened Def Con from 1.33466e-005 to 1.33496e-005
Heightened Def Con from 1.4501e-005 to 1.45031e-005
Heightened Def Con from 1.45032e-005 to 1.45112e-005
Heightened Def Con from 1.46575e-005 to 1.46605e-005
Heightened Def Con from 1.46621e-005 to 1.46634e-005
Heightened Def Con from 1.46634e-005 to 1.4664e-005
Heightened Def Con from 1.46658e-005 to 1.46718e-005
Heightened Def Con from 1.47718e-005 to 1.47828e-005
Heightened Def Con from 1.50428e-005 to 1.50458e-005
Heightened Def Con from 1.51749e-005 to 1.5176e-005
Heightened Def Con from 1.5176e-005 to 1.5176e-005
Heightened Def Con from 1.5176e-005 to 1.5176e-005
Heightened Def Con from 1.5176e-005 to 1.5176e-005
Heightened Def Con from 1.5176e-005 to 1.5176e-005
Heightened Def Con from 1.5176e-005 to 1.5176e-005
Heightened Def Con from 1.5176e-005 to 1.5176e-005
Heightened Def Con from 1.5176e-005 to 1.5176e-005
Heightened Def Con from 1.5176e-005 to 1.5176e-005
Heightened Def Con from 1.5176e-005 to 1.5176e-005
Heightened Def Con from 1.5176e-005 to 1.5176e-005
Heightened Def Con from 1.5176e-005 to 1.5176e-005
Heightened Def Con from 1.5176e-005 to 1.5176e-005
Heightened Def Con from 1.5176e-005 to 1.5176e-005
Heightened Def Con from 1.5176e-005 to 1.5176e-005
Heightened Def Con from 1.5176e-005 to 1.5176e-005
Heightened Def Con from 1.5176e-005 to 1.5176e-005
Heightened Def Con from 1.5176e-005 to 1.5176e-005
Heightened Def Con from 1.5176e-005 to 1.5176e-005
Heightened Def Con from 1.5176e-005 to 1.5176e-005
Heightened Def Con from 1.5176e-005 to 1.5176e-005
Heightened Def Con from 1.5176e-005 to 1.5176e-005
Heightened Def Con from 1.5176e-005 to 1.5176e-005
Heightened Def Con from 1.5176e-005 to 1.5176e-005
Heightened Def Con from 1.5176e-005 to 1.5176e-005
Heightened Def Con from 1.5176e-005 to 1.5176e-005
Heightened Def Con from 1.5176e-005 to 1.5176e-005
Heightened Def Con from 1.5176e-005 to 1.5176e-005
Heightened Def Con from 1.5176e-005 to 1.5176e-005
Heightened Def Con from 1.5176e-005 to 1.5176e-005
Heightened Def Con from 1.5176e-005 to 1.5176e-005
Heightened Def Con from 1.5176e-005 to 1.5176e-005
Heightened Def Con from 1.5176e-005 to 1.5176e-005
Heightened Def Con from 1.5176e-005 to 1.5176e-005
Heightened Def Con from 1.5176e-005 to 1.5176e-005
Heightened Def Con from 1.5176e-005 to 1.5176e-005
Heightened Def Con from 1.5176e-005 to 1.51761e-005
Heightened Def Con from 1.51761e-005 to 1.51761e-005
Heightened Def Con from 1.51761e-005 to 1.51761e-005
Heightened Def Con from 1.51761e-005 to 1.51761e-005
Heightened Def Con from 1.51761e-005 to 1.51761e-005
Heightened Def Con from 1.51761e-005 to 1.51761e-005
Heightened Def Con from 1.51761e-005 to 1.51761e-005
Heightened Def Con from 1.51761e-005 to 1.51761e-005
Heightened Def Con from 1.51761e-005 to 1.51761e-005
Heightened Def Con from 1.51761e-005 to 1.51761e-005
Heightened Def Con from 1.51761e-005 to 1.51761e-005
Heightened Def Con from 1.51761e-005 to 1.51761e-005
Heightened Def Con from 1.51761e-005 to 1.51761e-005
Heightened Def Con from 1.51761e-005 to 1.51761e-005
Heightened Def Con from 1.51761e-005 to 1.51761e-005
Heightened Def Con from 1.51761e-005 to 1.51761e-005
Heightened Def Con from 1.51761e-005 to 1.51761e-005
Heightened Def Con from 1.51761e-005 to 1.51761e-005
Heightened Def Con from 1.51761e-005 to 1.51761e-005
Heightened Def Con from 1.51761e-005 to 1.51761e-005
Heightened Def Con from 1.51761e-005 to 1.51761e-005
Heightened Def Con from 1.51761e-005 to 1.51761e-005
Heightened Def Con from 1.51761e-005 to 1.51761e-005
Heightened Def Con from 1.51761e-005 to 1.51761e-005
Heightened Def Con from 1.51761e-005 to 1.51761e-005
Heightened Def Con from 1.51761e-005 to 1.51761e-005
Heightened Def Con from 1.51761e-005 to 1.51761e-005
Heightened Def Con from 1.51761e-005 to 1.51761e-005
Heightened Def Con from 1.51761e-005 to 1.51761e-005
Heightened Def Con from 1.51761e-005 to 1.51761e-005
Heightened Def Con from 1.51761e-005 to 1.51761e-005
Heightened Def Con from 1.51761e-005 to 1.51761e-005
Heightened Def Con from 1.51761e-005 to 1.51761e-005
Heightened Def Con from 1.51761e-005 to 1.51761e-005
Heightened Def Con from 1.51761e-005 to 1.51761e-005
Heightened Def Con from 1.51761e-005 to 1.51761e-005
Heightened Def Con from 1.51761e-005 to 1.51761e-005
Heightened Def Con from 1.51761e-005 to 1.51761e-005
Heightened Def Con from 1.51761e-005 to 1.51761e-005
Heightened Def Con from 1.51761e-005 to 1.51761e-005
Heightened Def Con from 1.51761e-005 to 1.51761e-005
Heightened Def Con from 1.51761e-005 to 1.51761e-005
Heightened Def Con from 1.51761e-005 to 1.51761e-005
Heightened Def Con from 1.51761e-005 to 1.51761e-005
Heightened Def Con from 1.51761e-005 to 1.51761e-005
Heightened Def Con from 1.51761e-005 to 1.51761e-005
Heightened Def Con from 1.51761e-005 to 1.51761e-005
Heightened Def Con from 1.51761e-005 to 1.51761e-005
Heightened Def Con from 1.51761e-005 to 1.51761e-005
Heightened Def Con from 1.51761e-005 to 1.51761e-005
Heightened Def Con from 1.51761e-005 to 1.51761e-005
Heightened Def Con from 1.51761e-005 to 1.51761e-005
Heightened Def Con from 1.51761e-005 to 1.51761e-005
Heightened Def Con from 1.51761e-005 to 1.51761e-005
Heightened Def Con from 1.51761e-005 to 1.51761e-005
Heightened Def Con from 1.51761e-005 to 1.51761e-005
Heightened Def Con from 1.51761e-005 to 1.51761e-005
Heightened Def Con from 1.51761e-005 to 1.51761e-005
Heightened Def Con from 1.51761e-005 to 1.51761e-005
Heightened Def Con from 1.51761e-005 to 1.51761e-005
Heightened Def Con from 1.51761e-005 to 1.51761e-005
Heightened Def Con from 1.51761e-005 to 1.51761e-005
Heightened Def Con from 1.51761e-005 to 1.51761e-005
Heightened Def Con from 1.51761e-005 to 1.51761e-005
Heightened Def Con from 1.51761e-005 to 1.51761e-005
Heightened Def Con from 1.51761e-005 to 1.51761e-005
Heightened Def Con from 1.51761e-005 to 1.51761e-005
Heightened Def Con from 1.51761e-005 to 1.51761e-005
Heightened Def Con from 1.51761e-005 to 1.51761e-005
Heightened Def Con from 1.51761e-005 to 1.51761e-005
Heightened Def Con from 1.51761e-005 to 1.51761e-005
Heightened Def Con from 1.51761e-005 to 1.51761e-005
Heightened Def Con from 1.51762e-005 to 1.51762e-005
Heightened Def Con from 1.51762e-005 to 1.51762e-005
Heightened Def Con from 1.51762e-005 to 1.51762e-005
Heightened Def Con from 1.51762e-005 to 1.51762e-005
Heightened Def Con from 1.51762e-005 to 1.51762e-005
Heightened Def Con from 1.51762e-005 to 1.51762e-005
Heightened Def Con from 1.51762e-005 to 1.51762e-005
Heightened Def Con from 1.51762e-005 to 1.51762e-005
Heightened Def Con from 1.51762e-005 to 1.51762e-005
Heightened Def Con from 1.51762e-005 to 1.51762e-005
Heightened Def Con from 1.51762e-005 to 1.51762e-005
Heightened Def Con from 1.51762e-005 to 1.51762e-005
Heightened Def Con from 1.51762e-005 to 1.51762e-005
Heightened Def Con from 1.51762e-005 to 1.51762e-005
Heightened Def Con from 1.51762e-005 to 1.51762e-005
Heightened Def Con from 1.51762e-005 to 1.51762e-005
[...]
Heightened Def Con from 3.98955e-005 to 3.98955e-005
Heightened Def Con from 3.98955e-005 to 3.98955e-005
Heightened Def Con from 3.98955e-005 to 3.98956e-005
Heightened Def Con from 3.98956e-005 to 3.98956e-005
Heightened Def Con from 3.98956e-005 to 3.98956e-005
Heightened Def Con from 3.98956e-005 to 3.98956e-005
Heightened Def Con from 3.98956e-005 to 3.98956e-005
Heightened Def Con from 3.98956e-005 to 3.98956e-005
Heightened Def Con from 3.98956e-005 +to 3.98956e-005
Heightened Def Con from 3.98956e-005 to 3.98956e-005
Heightened Def Con from 3.98956e-005 to 3.98956e-005
Heightened Def Con from 3.98956e-005 to 3.98956e-005
Heightened Def Con from 3.98956e-005 to 3.98956e-005
Heightened Def Con from 3.98956e-005 to 3.98956e-005
Heightened Def Con from 3.98956e-005 to 3.98956e-005
Heightened Def Con from 3.98956e-005 to 3.98956e-005
Heightened Def Con from 3.98956e-005 to 3.98956e-005
Heightened Def Con from 3.98956e-005 to 3.98956e-005
Heightened Def Con from 3.98956e-005 to 3.98956e-005
Heightened Def Con from 3.98956e-005 to 3.98956e-005
Heightened Def Con from 3.98956e-005 to 3.98956e-005
Heightened Def Con from 3.98956e-005 to 3.98956e-005
Heightened Def Con from 3.98956e-005 to 3.98956e-005
Heightened Def Con from 3.98956e-005 to 3.98956e-005
Heightened Def Con from 3.98956e-005 to 3.98956e-005
Heightened Def Con from 3.98956e-005 to 3.98956e-005
Heightened Def Con from 3.98956e-005 to 3.98956e-005
Heightened Def Con from 3.98956e-005 to 3.98956e-005
Heightened Def Con from 3.98956e-005 to 3.98956e-005
Heightened Def Con from 3.98956e-005 to 3.98956e-005
Heightened Def Con from 3.98956e-005 to 3.98956e-005
Heightened Def Con from 3.98956e-005 to 3.98956e-005
Heightened Def Con from 3.98956e-005 to 3.98956e-005
Heightened Def Con from 3.98956e-005 to 3.98956e-005
Heightened Def Con from 3.98956e-005 to 3.98956e-005
Heightened Def Con from 3.98956e-005 to 3.98956e-005
Heightened Def Con from 3.98956e-005 to 3.98956e-005
Heightened Def Con from 3.98956e-005 to 3.98956e-005
Heightened Def Con from 3.98956e-005 to 3.98956e-005
Heightened Def Con from 3.98956e-005 to 3.98956e-005
Heightened Def Con from 3.98956e-005 to 3.98956e-005
Heightened Def Con from 3.98956e-005 to 3.98956e-005
Heightened Def Con from 3.98956e-005 to 3.98956e-005
Heightened Def Con from 3.98956e-005 to 3.98956e-005
Heightened Def Con from 3.98956e-005 to 3.98956e-005
Heightened Def Con from 3.98956e-005 to 3.98956e-005
Heightened Def Con from 3.98956e-005 to 3.98956e-005
Heightened Def Con from 3.98956e-005 to 3.98956e-005
Heightened Def Con from 3.98956e-005 to 3.98956e-005
Heightened Def Con from 3.98956e-005 to 3.98956e-005
Heightened Def Con from 3.98956e-005 to 3.98956e-005
Heightened Def Con from 3.98956e-005 to 3.98956e-005
Heightened Def Con from 3.98956e-005 to 3.98956e-005
Heightened Def Con from 3.98956e-005 to 3.98956e-005
Heightened Def Con from 3.98956e-005 to 3.98956e-005
Heightened Def Con from 3.98956e-005 to 3.98976e-005
Heightened Def Con from 4.03208e-005 to 4.03238e-005
Heightened Def Con from 4.05196e-005 to 4.05207e-005
Heightened Def Con from 4.05209e-005 to 4.05212e-005
Heightened Def Con from 4.05212e-005 to 4.05226e-005
Heightened Def Con from 4.05226e-005 to 4.0523e-005
Heightened Def Con from 4.0523e-005 to 4.0527e-005
Heightened Def Con from 4.05705e-005 to 4.05755e-005
Heightened Def Con from 4.17491e-005 to 4.17641e-005
Heightened Def Con from 4.17682e-005 to 4.17763e-005
Heightened Def Con from 4.17763e-005 to 4.17763e-005
Heightened Def Con from 4.17763e-005 to 4.17763e-005
Heightened Def Con from 4.17763e-005 to 4.17763e-005
Heightened Def Con from 4.17763e-005 to 4.17763e-005
Heightened Def Con from 4.17763e-005 to 4.17763e-005
Heightened Def Con from 4.17764e-005 to 4.17764e-005
Heightened Def Con from 4.17764e-005 to 4.17764e-005
Heightened Def Con from 4.17764e-005 to 4.17764e-005
Heightened Def Con from 4.17764e-005 to 4.17764e-005
Heightened Def Con from 4.17764e-005 to 4.17764e-005
Heightened Def Con from 4.17764e-005 to 4.17764e-005
Heightened Def Con from 4.19226e-005 to 4.19228e-005
Heightened Def Con from 4.19238e-005 to 4.19238e-005
Heightened Def Con from 4.19239e-005 to 4.19239e-005
Heightened Def Con from 4.1924e-005 to 4.19241e-005
Heightened Def Con from 4.19242e-005 to 4.19243e-005
Heightened Def Con from 4.19245e-005 to 4.19245e-005
Heightened Def Con from 4.19245e-005 to 4.19245e-005
Heightened Def Con from 4.19245e-005 to 4.19245e-005
Heightened Def Con from 4.19245e-005 to 4.19246e-005
Heightened Def Con from 4.19246e-005 to 4.19246e-005
Heightened Def Con from 4.1925e-005 to 4.19256e-005
Heightened Def Con from 4.19266e-005 to 4.19346e-005
Heightened Def Con from 4.21079e-005 to 4.21119e-005
Heightened Def Con from 4.23711e-005 to 4.23741e-005
Heightened Def Con from 4.2437e-005 to 4.2438e-005
Heightened Def Con from 4.2438e-005 to 4.24381e-005
Heightened Def Con from 4.24381e-005 to 4.24381e-005
Heightened Def Con from 4.24381e-005 to 4.24381e-005
Heightened Def Con from 4.24381e-005 to 4.24381e-005
Heightened Def Con from 4.24381e-005 to 4.24381e-005
Heightened Def Con from 4.24384e-005 to 4.24384e-005
Heightened Def Con from 4.24384e-005 to 4.24384e-005
Heightened Def Con from 4.24384e-005 to 4.24384e-005
Heightened Def Con from 4.24384e-005 to 4.24384e-005
Heightened Def Con from 4.24384e-005 to 4.24384e-005
Heightened Def Con from 4.24384e-005 to 4.24384e-005
Heightened Def Con from 4.24384e-005 to 4.24384e-005
Heightened Def Con from 4.24384e-005 to 4.24384e-005
Heightened Def Con from 4.24385e-005 to 4.24385e-005
Heightened Def Con from 4.24385e-005 to 4.24393e-005
Heightened Def Con from 4.32695e-005 to 4.32715e-005
Heightened Def Con from 4.41988e-005 to 4.42028e-005
Heightened Def Con from 4.42677e-005 to 4.42737e-005
Heightened Def Con from 4.44815e-005 +to 4.44835e-005
Heightened Def Con from 4.45497e-005 to 4.45527e-005
Heightened Def Con from 4.4638e-005 to 4.4638e-005
Heightened Def Con from 4.4638e-005 to 4.4638e-005
Heightened Def Con from 4.4638e-005 to 4.4638e-005
Heightened Def Con from 4.4638e-005 to 4.4638e-005
Heightened Def Con from 4.4638e-005 to 4.4638e-005
Heightened Def Con from 4.4638e-005 to 4.4638e-005
Heightened Def Con from 4.4638e-005 to 4.4638e-005
Heightened Def Con from 4.4638e-005 to 4.4638e-005
Heightened Def Con from 4.4638e-005 to 4.4638e-005
Heightened Def Con from 4.4638e-005 to 4.4638e-005
Heightened Def Con from 4.4638e-005 to 4.4638e-005
Heightened Def Con from 4.4638e-005 to 4.4638e-005
Heightened Def Con from 4.4638e-005 to 4.4638e-005
Heightened Def Con from 4.4638e-005 to 4.4638e-005
Heightened Def Con from 4.4638e-005 to 4.4638e-005
Heightened Def Con from 4.4638e-005 to 4.4638e-005
Heightened Def Con from 4.4638e-005 to 4.4638e-005
Heightened Def Con from 4.4638e-005 to 4.4638e-005
Heightened Def Con from 4.4638e-005 to 4.46381e-005
Heightened Def Con from 4.46381e-005 to 4.46381e-005
Heightened Def Con from 4.46381e-005 to 4.46381e-005
Heightened Def Con from 4.46381e-005 to 4.46381e-005
Heightened Def Con from 4.46381e-005 to 4.46381e-005
Heightened Def Con from 4.46381e-005 to 4.46381e-005
Heightened Def Con from 4.46381e-005 to 4.46381e-005
Heightened Def Con from 4.46381e-005 to 4.46381e-005
Heightened Def Con from 4.46381e-005 to 4.46381e-005
Heightened Def Con from 4.46381e-005 to 4.46381e-005
Heightened Def Con from 4.46381e-005 to 4.46381e-005
Heightened Def Con from 4.46381e-005 to 4.46381e-005
Heightened Def Con from 4.46381e-005 to 4.46381e-005
Heightened Def Con from 4.46381e-005 to 4.46381e-005
Heightened Def Con from 4.46381e-005 to 4.46381e-005
Heightened Def Con from 4.46381e-005 to 4.46381e-005
Heightened Def Con from 4.46381e-005 to 4.46381e-005
Heightened Def Con from 4.46381e-005 to 4.46381e-005
Heightened Def Con from 4.46381e-005 to 4.46381e-005
Heightened Def Con from 4.46381e-005 to 4.46381e-005
Heightened Def Con from 4.46381e-005 to 4.46381e-005
Heightened Def Con from 4.46381e-005 to 4.46381e-005
Heightened Def Con from 4.46381e-005 to 4.46381e-005
Heightened Def Con from 4.46381e-005 to 4.46381e-005
Heightened Def Con from 4.46381e-005 to 4.46381e-005
Heightened Def Con from 4.46381e-005 to 4.46381e-005
Heightened Def Con from 4.46381e-005 to 4.46381e-005
Heightened Def Con from 4.46381e-005 to 4.46381e-005
Heightened Def Con from 4.46381e-005 to 4.46381e-005
Heightened Def Con from 4.46381e-005 to 4.46381e-005
Heightened Def Con from 4.46381e-005 to 4.46381e-005
Heightened Def Con from 4.46381e-005 to 4.46381e-005
Heightened Def Con from 4.46381e-005 to 4.46381e-005
Heightened Def Con from 4.46381e-005 to 4.46381e-005
Heightened Def Con from 4.46381e-005 to 4.46381e-005
Heightened Def Con from 4.46381e-005 to 4.46381e-005
Heightened Def Con from 4.46381e-005 to 4.46381e-005
Heightened Def Con from 4.46381e-005 to 4.46381e-005
Heightened Def Con from 4.46381e-005 to 4.46381e-005
Heightened Def Con from 4.46381e-005 to 4.46381e-005
Heightened Def Con from 4.46381e-005 to 4.46381e-005
Heightened Def Con from 4.46381e-005 to 4.46381e-005
Heightened Def Con from 4.46381e-005 to 4.46381e-005
Heightened Def Con from 4.46381e-005 to 4.46381e-005
Heightened Def Con from 4.46381e-005 to 4.46381e-005
Heightened Def Con from 4.46381e-005 to 4.46381e-005
Heightened Def Con from 4.46381e-005 to 4.46381e-005
Heightened Def Con from 4.46381e-005 to 4.46381e-005
Heightened Def Con from 4.46381e-005 to 4.46381e-005
Heightened Def Con from 4.46381e-005 to 4.46381e-005
Heightened Def Con from 4.46381e-005 to 4.46381e-005
Heightened Def Con from 4.46381e-005 to 4.46381e-005
Heightened Def Con from 4.46381e-005 to 4.46381e-005
Heightened Def Con from 4.46381e-005 to 4.46381e-005
Heightened Def Con from 4.46381e-005 to 4.46381e-005
Heightened Def Con from 4.46381e-005 to 4.46381e-005
Heightened Def Con from 4.46381e-005 to 4.46381e-005
Heightened Def Con from 4.46381e-005 to 4.46381e-005
Heightened Def Con from 4.46381e-005 to 4.46381e-005
Heightened Def Con from 4.46381e-005 to 4.46382e-005
Heightened Def Con from 4.46382e-005 to 4.46382e-005
Heightened Def Con from 4.46382e-005 to 4.46382e-005
Heightened Def Con from 4.46382e-005 to 4.46382e-005
Heightened Def Con from 4.46382e-005 to 4.46382e-005
Heightened Def Con from 4.46382e-005 to 4.46382e-005
Heightened Def Con from 4.46382e-005 to 4.46382e-005
Heightened Def Con from 4.46382e-005 to 4.46382e-005
Heightened Def Con from 4.46382e-005 to 4.46382e-005
Heightened Def Con from 4.46382e-005 to 4.46382e-005
Heightened Def Con from 4.46382e-005 to 4.46382e-005
Heightened Def Con from 4.46382e-005 to 4.46382e-005
Heightened Def Con from 4.46382e-005 to 4.46382e-005
Heightened Def Con from 4.46382e-005 to 4.46382e-005
Heightened Def Con from 4.46382e-005 to 4.46382e-005
Heightened Def Con from 4.46382e-005 to 4.46382e-005
Heightened Def Con from 4.46382e-005 to 4.46382e-005
Heightened Def Con from 4.46382e-005 to 4.46382e-005
Heightened Def Con from 4.46382e-005 to 4.46382e-005
Heightened Def Con from 4.46382e-005 to 4.46382e-005
Heightened Def Con from 4.46382e-005 to 4.46382e-005
Heightened Def Con from 4.46382e-005 to 4.46382e-005
Heightened Def Con from 4.46382e-005 to 4.46382e-005
Heightened Def Con from 4.46382e-005 to 4.46382e-005
Heightened Def Con from 4.46382e-005 to 4.46382e-005
Heightened Def Con from 4.46382e-005 to 4.46382e-005
Heightened Def Con from 4.46382e-005 to 4.46382e-005
Heightened Def Con from 4.46382e-005 to 4.46382e-005
Heightened Def Con from 4.46382e-005 to 4.46382e-005
Heightened Def Con from 4.46382e-005 to 4.46382e-005
Heightened Def Con from 4.46382e-005 to 4.46382e-005
Heightened Def Con from 4.46382e-005 to 4.46382e-005
Heightened Def Con from 4.46382e-005 to 4.46382e-005
Heightened Def Con from 4.46382e-005 to 4.46382e-005
Heightened Def Con from 4.46382e-005 to 4.46382e-005
Heightened Def Con from 4.46382e-005 to 4.46382e-005
Heightened Def Con from 4.46382e-005 to 4.46382e-005
Heightened Def Con from 4.46382e-005 to 4.46382e-005
Heightened Def Con from 4.46382e-005 to 4.46382e-005
Heightened Def Con from 4.46382e-005 to 4.46382e-005
Heightened Def Con from 4.46382e-005 to 4.46382e-005
Heightened Def Con from 4.46382e-005 to 4.46382e-005
Heightened Def Con from 4.46382e-005 to 4.46382e-005
Heightened Def Con from 4.46382e-005 to 4.46382e-005
Heightened Def Con from 4.46382e-005 to 4.46382e-005
Heightened Def Con from 4.46382e-005 to 4.46382e-005
Heightened Def Con from 4.46382e-005 to 4.46382e-005
Heightened Def Con from 4.46382e-005 to 4.46382e-005
Heightened Def Con from 4.46382e-005 to 4.46382e-005
Heightened Def Con from 4.46382e-005 to 4.46382e-005
Heightened Def Con from 4.46382e-005 to 4.46382e-005
Heightened Def Con from 4.46382e-005 to 4.46382e-005
Heightened Def Con from 4.46382e-005 to 4.46382e-005
Heightened Def Con from 4.46382e-005 to 4.46382e-005
Heightened Def Con from 4.46382e-005 to 4.46382e-005
Heightened Def Con from 4.46382e-005 to 4.46382e-005
Heightened Def Con from 4.46382e-005 to 4.46382e-005
Heightened Def Con from 4.46382e-005 to 4.46382e-005
Heightened Def Con from 4.46382e-005 to 4.46382e-005
Heightened Def Con from 4.46383e-005 to 4.46383e-005
Heightened Def Con from 4.46383e-005 to 4.46383e-005
Heightened Def Con from 4.46383e-005 to 4.46383e-005
Heightened Def Con from 4.46383e-005 to 4.46383e-005
Heightened Def Con from 4.46383e-005 to 4.46383e-005
Heightened Def Con from 4.46383e-005 to 4.46383e-005
Heightened Def Con from 4.46383e-005 to 4.46383e-005
Heightened Def Con from 4.46383e-005 to 4.46383e-005
Heightened Def Con from 4.46383e-005 to 4.46383e-005
Heightened Def Con from 4.46383e-005 to 4.46383e-005
Heightened Def Con from 4.46383e-005 to 4.46383e-005
Heightened Def Con from 4.46383e-005 to 4.46383e-005
Heightened Def Con from 4.46383e-005 to 4.46383e-005
Heightened Def Con from 4.46383e-005 to 4.46383e-005
Heightened Def Con from 4.46383e-005 to 4.46383e-005
Heightened Def Con from 4.46383e-005 to 4.46383e-005
Heightened Def Con from 4.46383e-005 to 4.46383e-005
Heightened Def Con from 4.46383e-005 to 4.46383e-005
Heightened Def Con from 4.46383e-005 to 4.46383e-005
Heightened Def Con from 4.46383e-005 to 4.46383e-005
Heightened Def Con from 4.46383e-005 to 4.46383e-005
Heightened Def Con from 4.46383e-005 to 4.46383e-005
Heightened Def Con from 4.46383e-005 to 4.46383e-005
Heightened Def Con from 4.46383e-005 to 4.46383e-005
Heightened Def Con from 4.46383e-005 to 4.46383e-005
Heightened Def Con from 4.46383e-005 to 4.46383e-005
Heightened Def Con from 4.46383e-005 to 4.46383e-005
Heightened Def Con from 4.46383e-005 to 4.46383e-005
Heightened Def Con from 4.46383e-005 to 4.46383e-005
Heightened Def Con from 4.46383e-005 to 4.46383e-005
Heightened Def Con from 4.46383e-005 to 4.46383e-005
Heightened Def Con from 4.46383e-005 to 4.46383e-005
Heightened Def Con from 4.46383e-005 to 4.46383e-005
Heightened Def Con from 4.46383e-005 to 4.46383e-005
Heightened Def Con from 4.46383e-005 to 4.46383e-005
Heightened Def Con from 4.46383e-005 to 4.46383e-005
Heightened Def Con from 4.46383e-005 to 4.46383e-005
Heightened Def Con from 4.46383e-005 to 4.46383e-005
Heightened Def Con from 4.46383e-005 to 4.46383e-005
Heightened Def Con from 4.46383e-005 to 4.46383e-005
Heightened Def Con from 4.46383e-005 to 4.46383e-005
Heightened Def Con from 4.46383e-005 to 4.46383e-005
Heightened Def Con from 4.46383e-005 to 4.46383e-005
Heightened Def Con from 4.46383e-005 to 4.46383e-005
Heightened Def Con from 4.46383e-005 to 4.46383e-005
Heightened Def Con from 4.46383e-005 to 4.46383e-005
Heightened Def Con from 4.46383e-005 to 4.46383e-005
Heightened Def Con from 4.46383e-005 to 4.46383e-005
Heightened Def Con from 4.46383e-005 to 4.46383e-005
Heightened Def Con from 4.46383e-005 to 4.46383e-005
Heightened Def Con from 4.46383e-005 to 4.46383e-005
Heightened Def Con from 4.46383e-005 to 4.46383e-005
Heightened Def Con from 4.46383e-005 to 4.46383e-005
Heightened Def Con from 4.46383e-005 to 4.46383e-005
Heightened Def Con from 4.46383e-005 to 4.46383e-005
Heightened Def Con from 4.46383e-005 to 4.46383e-005
Heightened Def Con from 4.46383e-005 to 4.46383e-005
Heightened Def Con from 4.46383e-005 to 4.46383e-005
Heightened Def Con from 4.46383e-005 to 4.46383e-005
Heightened Def Con from 4.46383e-005 to 4.46383e-005
Heightened Def Con from 4.46383e-005 to 4.46383e-005
Heightened Def Con from 4.46383e-005 to 4.46383e-005
Heightened Def Con from 4.46383e-005 to 4.46383e-005
Heightened Def Con from 4.46383e-005 to 4.46383e-005
Heightened Def Con from 4.46383e-005 to 4.46383e-005
Heightened Def Con from 4.46383e-005 to 4.46383e-005
Heightened Def Con from 4.46383e-005 to 4.46383e-005
Heightened Def Con from 4.46383e-005 to 4.46383e-005
Heightened Def Con from 4.46383e-005 to 4.46383e-005
Heightened Def Con from 4.46383e-005 to 4.46383e-005
Heightened Def Con from 4.46383e-005 to 4.46383e-005
Heightened Def Con from 4.46383e-005 to 4.46383e-005
Heightened Def Con from 4.46383e-005 to 4.46383e-005
Heightened Def Con from 4.46383e-005 to 4.46383e-005
Heightened Def Con from 4.46383e-005 to 4.46383e-005
Heightened Def Con from 4.46383e-005 to 4.46383e-005
Heightened Def Con from 4.46383e-005 to 4.46383e-005
Heightened Def Con from 4.46383e-005 to 4.46383e-005
Heightened Def Con from 4.46384e-005 to 4.46384e-005
Heightened Def Con from 4.46384e-005 to 4.46384e-005
Heightened Def Con from 4.46384e-005 to 4.46384e-005
Heightened Def Con from 4.46384e-005 to 4.46384e-005
Heightened Def Con from 4.46384e-005 to 4.46384e-005
Heightened Def Con from 4.46384e-005 to 4.46384e-005
Heightened Def Con from 4.46384e-005 to 4.46384e-005
Heightened Def Con from 4.46384e-005 to 4.46384e-005
Heightened Def Con from 4.46384e-005 to 4.46384e-005
Heightened Def Con from 4.46384e-005 to 4.46384e-005
Heightened Def Con from 4.46384e-005 to 4.46384e-005
Heightened Def Con from 4.46384e-005 to 4.46384e-005
Heightened Def Con from 4.46384e-005 to 4.46384e-005
Heightened Def Con from 4.46384e-005 to 4.46384e-005
Heightened Def Con from 4.46384e-005 to 4.46384e-005
Heightened Def Con from 4.46384e-005 to 4.46384e-005
Heightened Def Con from 4.46384e-005 to 4.46384e-005
Heightened Def Con from 4.46384e-005 to 4.46384e-005
Heightened Def Con from 4.46384e-005 to 4.46384e-005
Heightened Def Con from 4.46384e-005 to 4.46384e-005
Heightened Def Con from 4.46384e-005 to 4.46384e-005
Heightened Def Con from 4.46384e-005 to 4.46384e-005
Heightened Def Con from 4.46384e-005 to 4.46384e-005
Heightened Def Con from 4.46384e-005 to 4.46384e-005
Heightened Def Con from 4.46384e-005 to 4.46384e-005
Heightened Def Con from 4.46384e-005 to 4.46384e-005
Heightened Def Con from 4.46384e-005 to 4.46384e-005
Heightened Def Con from 4.46384e-005 to 4.46384e-005
Heightened Def Con from 4.46384e-005 to 4.46384e-005
Heightened Def Con from 4.46384e-005 to 4.46384e-005
Heightened Def Con from 4.46384e-005 to 4.46384e-005
Heightened Def Con from 4.46384e-005 to 4.46384e-005
Heightened Def Con from 4.46384e-005 to 4.46384e-005
Heightened Def Con from 4.46384e-005 to 4.46384e-005
Heightened Def Con from 4.46384e-005 to 4.46384e-005
Heightened Def Con from 4.46384e-005 to 4.46384e-005
Heightened Def Con from 4.46384e-005 to 4.46404e-005
Heightened Def Con from 4.48828e-005 to 4.48858e-005
Heightened Def Con from 4.51462e-005 to 4.51482e-005
Heightened Def Con from 4.51497e-005 to 4.5151e-005
Heightened Def Con from 4.5151e-005 to 4.51519e-005
Heightened Def Con from 4.51942e-005 to 4.51972e-005
Heightened Def Con from 4.51989e-005 to 4.52039e-005
Heightened Def Con from 4.61128e-005 to 4.61209e-005
Heightened Def Con from 4.61212e-005 to 4.61242e-005
Heightened Def Con from 4.61297e-005 to 4.6131e-005
Heightened Def Con from 4.6131e-005 to 4.6131e-005
Heightened Def Con from 4.6131e-005 to 4.6138e-005
Heightened Def Con from 4.61755e-005 ++++++++++++++++++++++++++++++++++++++++++++++++++Fatal Error: Analysis:  Time step too small; time = 4.61755e-005, timestep = 1.25e-019: trouble with node "u7:_gd_template:_input_stage:_lin_lpf:_cmp:outp"

