Circuit: * C:\Users\corne\OneDrive\Documentos\Diogenes\Facultad\C2\Buck_lazo_cerrado\Buck-lazo-cerrado.asc

WARNING: Less than two connections to node -vcc3.  This node is used by v10.
Instance "m:ir2104:_gd_template:_ho_stage:_ho_pmos": Length shorter than recommended for a level 1 MOSFET.
Instance "m:ir2104:_gd_template:_ho_stage:_ho_nmos": Length shorter than recommended for a level 1 MOSFET.
Instance "m:ir2104:_gd_template:_lo_stage:_lo_pmos": Length shorter than recommended for a level 1 MOSFET.
Instance "m:ir2104:_gd_template:_lo_stage:_lo_nmos": Length shorter than recommended for a level 1 MOSFET.
Instance "m:u13:_gd_template:_ho_stage:_ho_pmos": Length shorter than recommended for a level 1 MOSFET.
Instance "m:u13:_gd_template:_ho_stage:_ho_nmos": Length shorter than recommended for a level 1 MOSFET.
Instance "m:u13:_gd_template:_lo_stage:_lo_pmos": Length shorter than recommended for a level 1 MOSFET.
Instance "m:u13:_gd_template:_lo_stage:_lo_nmos": Length shorter than recommended for a level 1 MOSFET.
Direct Newton iteration for .op point skipped.
Starting Gmin stepping
Gmin = 10
vernier = 0.5
vernier = 0.25
vernier = 0.125
Gmin = 5.5165
vernier = 0.0625
vernier = 0.03125
vernier = 0.015625
vernier = 0.0078125
Gmin = 5.49501
vernier = 0.00390625
vernier = 0.00195312
vernier = 0.000976562
vernier = 0.000488281
Gmin = 5.50104
Gmin = 0
Gmin stepping failed

Starting source stepping with srcstepmethod=0
Source Step = 3.0303%
Source Step = 33.3333%
Source Step = 50.1894%
vernier = 0.015625
Source Step = 50.0237%
Starting source stepping with srcstepmethod=1
Source Step = 3.0303%
Source Step = 33.3333%
Source Step = 50.1894%
vernier = 0.015625
Source stepping failed

Pseudo Transient failed in finding the operating point at 5.00977 µs.
Trouble finding operating point....skipping operating point for Transient analysis.
Changing Tseed to 5e-09
Changing Tseed to 5e-11
Changing Tseed to 5e-08
Changing Tseed to 5e-12
Changing Tseed to 5e-07
Changing Tseed to 5e-13
to 5.625e-13
Heightened Def Con from 6.73747e-07 to 6.74624e-07
Heightened Def Con from 6.74725e-07 to 6.74991e-07
Heightened Def Con from 4.1611e-06 to 4.16124e-06
Heightened Def Con from 5.16873e-06 to 5.16961e-06
Heightened Def Con from 8.79024e-06 to 8.79112e-06
Heightened Def Con from 8.99366e-06 to 8.99666e-06
Heightened Def Con from 9.34141e-06 to 9.35241e-06
Heightened Def Con from 9.49544e-06 to 9.49657e-06
Heightened Def Con from 9.49876e-06 to 9.49938e-06
Heightened Def Con from 9.99704e-06 to 1.0001e-05
Heightened Def Con from 1.00147e-05 to 1.00177e-05
Heightened Def Con from 1.0018e-05 to 1.0018e-05
Heightened Def Con from 1.0018e-05 to 1.0018e-05
Heightened Def Con from 1.0018e-05 to 1.0018e-05
Heightened Def Con from 1.0018e-05 to 1.0018e-05
Heightened Def Con from 1.0018e-05 to 1.0018e-05
Heightened Def Con from 1.0018e-05 to 1.0018e-05
Heightened Def Con from 1.0018e-05 to 1.0018e-05
Heightened Def Con from 1.0018e-05 to 1.0018e-05
Heightened Def Con from 1.0018e-05 to 1.0018e-05
Heightened Def Con from 1.0018e-05 to 1.0018e-05
Heightened Def Con from 1.0018e-05 to 1.0018e-05
Heightened Def Con from 1.0018e-05 to 1.0018e-05
Heightened Def Con from 1.0018e-05 to 1.0018e-05
Heightened Def Con from 1.0018e-05 to 1.0018e-05
Heightened Def Con from 1.00181e-05 to 1.00181e-05
Heightened Def Con from 1.00182e-05 to 1.0019e-05
Heightened Def Con from 1.19512e-05 +++++++++++++++++++++++++++++++++to 1.19522e-05
Heightened Def Con from 1.19522e-05 to 1.19524e-05
Heightened Def Con from 1.21035e-05 to 1.21055e-05
Heightened Def Con from 1.23471e-05 to 1.23481e-05
Heightened Def Con from 1.23481e-05 to 1.23493e-05
Heightened Def Con from 1.23493e-05 to 1.23563e-05
Heightened Def Con from 1.281e-05 to 1.2812e-05
Heightened Def Con from 1.28145e-05 to 1.28175e-05
Heightened Def Con from 1.2938e-05 to 1.2945e-05
Heightened Def Con from 1.29503e-05 to 1.29563e-05
Heightened Def Con from 1.29605e-05 to 1.29645e-05
Heightened Def Con from 1.29666e-05 to 1.29696e-05
Heightened Def Con from 1.30154e-05 to 1.30167e-05
Heightened Def Con from 1.30167e-05 to 1.30176e-05
Heightened Def Con from 1.38003e-05 to 1.38024e-05
Heightened Def Con from 1.38024e-05 to 1.38064e-05
Heightened Def Con from 1.38093e-05 to 1.38203e-05
Heightened Def Con from 1.39625e-05 to 1.39647e-05
Heightened Def Con from 1.39663e-05 to 1.39664e-05
Heightened Def Con from 1.39664e-05 to 1.39665e-05
Heightened Def Con from 1.3967e-05 to 1.39676e-05
Heightened Def Con from 1.41655e-05 to 1.41695e-05
Heightened Def Con from 1.44853e-05 to 1.44853e-05
Heightened Def Con from 1.44853e-05 to 1.44853e-05
Heightened Def Con from 1.44853e-05 to 1.44853e-05
Heightened Def Con from 1.44853e-05 to 1.44853e-05
Heightened Def Con from 1.44853e-05 to 1.44853e-05
Heightened Def Con from 1.44853e-05 to 1.44853e-05
Heightened Def Con from 1.44853e-05 to 1.44853e-05
Heightened Def Con from 1.44853e-05 to 1.44853e-05
Heightened Def Con from 1.44853e-05 to 1.44854e-05
Heightened Def Con from 1.44854e-05 to 1.44854e-05
Heightened Def Con from 1.44854e-05 to 1.44854e-05
Heightened Def Con from 1.44854e-05 to 1.44854e-05
Heightened Def Con from 1.44854e-05 to 1.44854e-05
Heightened Def Con from 1.44854e-05 to 1.44854e-05
Heightened Def Con from 1.44854e-05 to 1.44863e-05
Heightened Def Con from 1.60043e-05 +++++++++++++++++++++++++++++++++to 1.60053e-05
Heightened Def Con from 1.60053e-05 to 1.60203e-05
Heightened Def Con from 1.61976e-05 ++++++++++++++++++++++++to 1.62026e-05
Heightened Def Con from 1.6334e-05 to 1.6337e-05
Heightened Def Con from 1.63561e-05 to 1.63641e-05
Heightened Def Con from 1.68677e-05 to 1.68688e-05
Heightened Def Con from 1.68689e-05 to 1.68704e-05
Heightened Def Con from 1.68704e-05 to 1.68734e-05
Heightened Def Con from 1.70052e-05 to 1.70082e-05
Heightened Def Con from 1.70179e-05 to 1.70219e-05
Heightened Def Con from 1.83589e-05 to 1.83699e-05
Heightened Def Con from 1.83857e-05 to 1.83867e-05
Heightened Def Con from 1.83868e-05 to 1.83938e-05
Heightened Def Con from 1.84561e-05 to 1.84601e-05
Heightened Def Con from 1.84668e-05 to 1.8468e-05
Heightened Def Con from 1.84716e-05 to 1.84721e-05
Heightened Def Con from 1.84728e-05 to 1.84735e-05
Heightened Def Con from 1.84772e-05 to 1.84812e-05
Heightened Def Con from 1.85146e-05 to 1.85159e-05
Heightened Def Con from 1.85159e-05 to 1.85166e-05
Heightened Def Con from 1.91435e-05 to 1.91445e-05
Heightened Def Con from 1.91445e-05 to 1.91445e-05
Heightened Def Con from 1.91445e-05 to 1.91445e-05
Heightened Def Con from 1.91445e-05 to 1.91445e-05
Heightened Def Con from 1.91445e-05 to 1.91445e-05
Heightened Def Con from 1.91445e-05 to 1.91445e-05
Heightened Def Con from 1.91445e-05 to 1.91446e-05
Heightened Def Con from 1.91446e-05 to 1.91446e-05
Heightened Def Con from 1.91446e-05 to 1.91446e-05
Heightened Def Con from 1.91446e-05 to 1.91447e-05
Heightened Def Con from 1.91447e-05 to 1.91447e-05
Heightened Def Con from 1.91447e-05 to 1.91447e-05
Heightened Def Con from 1.91447e-05 to 1.91447e-05
Heightened Def Con from 1.91447e-05 to 1.91447e-05
Heightened Def Con from 1.91447e-05 to 1.91447e-05
Heightened Def Con from 1.91447e-05 to 1.91447e-05
Heightened Def Con from 1.91447e-05 to 1.91447e-05
Heightened Def Con from 1.91447e-05 to 1.91447e-05
Heightened Def Con from 1.91447e-05 to 1.91447e-05
Heightened Def Con from 1.91447e-05 to 1.91456e-05
Heightened Def Con from 2.02657e-05 +++++++++++++++++++++++++++++++++to 2.02668e-05
Heightened Def Con from 2.0289e-05 to 2.029e-05
Heightened Def Con from 2.04401e-05 to 2.0442e-05
Heightened Def Con from 2.09591e-05 to 2.09604e-05
Heightened Def Con from 2.09604e-05 to 2.09617e-05
Heightened Def Con from 2.28619e-05 to 2.2867e-05
Heightened Def Con from 2.28741e-05 to 2.28851e-05
Heightened Def Con from 2.30285e-05 to 2.30291e-05
Heightened Def Con from 2.35499e-05 to 2.35509e-05
Heightened Def Con from 2.35509e-05 to 2.35509e-05
Heightened Def Con from 2.3551e-05 to 2.3551e-05
Heightened Def Con from 2.3551e-05 to 2.3551e-05
Heightened Def Con from 2.3551e-05 to 2.35511e-05
Heightened Def Con from 2.35511e-05 to 2.35511e-05
Heightened Def Con from 2.35511e-05 to 2.35511e-05
Heightened Def Con from 2.35511e-05 to 2.35511e-05
Heightened Def Con from 2.35511e-05 to 2.35511e-05
Heightened Def Con from 2.35511e-05 to 2.35511e-05
Heightened Def Con from 2.35511e-05 to 2.3552e-05
Heightened Def Con from 2.46535e-05 to 2.46535e-05
Heightened Def Con from 2.51691e-05 to 2.51701e-05
Heightened Def Con from 2.51702e-05 to 2.5171e-05
Heightened Def Con from 2.72306e-05 to 2.72346e-05
Heightened Def Con from 2.72413e-05 to 2.72453e-05
Heightened Def Con from 2.74587e-05 to 2.74697e-05
Heightened Def Con from 2.76157e-05 to 2.76158e-05
Heightened Def Con from 2.76161e-05 to 2.76168e-05
Heightened Def Con from 2.79978e-05 to 2.80008e-05
Heightened Def Con from 2.81316e-05 to 2.81316e-05
Heightened Def Con from 2.81316e-05 to 2.81316e-05
Heightened Def Con from 2.81316e-05 to 2.81316e-05
Heightened Def Con from 2.81316e-05 to 2.81316e-05
Heightened Def Con from 2.81316e-05 to 2.81316e-05
Heightened Def Con from 2.81316e-05 to 2.81316e-05
Heightened Def Con from 2.81316e-05 to 2.81316e-05
Heightened Def Con from 2.81317e-05 to 2.81317e-05
Heightened Def Con from 2.81317e-05 to 2.81326e-05
Heightened Def Con from 2.90872e-05 to 2.90892e-05
Heightened Def Con from 2.90894e-05 to 2.90905e-05
Heightened Def Con from 2.92421e-05 to 2.92425e-05
Heightened Def Con from 2.97562e-05 to 2.97562e-05
Heightened Def Con from 2.97566e-05 to 2.97574e-05
Heightened Def Con from 2.97575e-05 to 2.97584e-05
Heightened Def Con from 3.1793e-05 to 3.1797e-05
Heightened Def Con from 3.18024e-05 to 3.18064e-05
Heightened Def Con from 3.18945e-05 to 3.19055e-05
Heightened Def Con from 3.20498e-05 to 3.2051e-05
Heightened Def Con from 3.20511e-05 to 3.20517e-05
Heightened Def Con from 3.21014e-05 to 3.21044e-05
Heightened Def Con from 3.25728e-05 to 3.25728e-05
Heightened Def Con from 3.25729e-05 to 3.25738e-05
Heightened Def Con from 3.37695e-05 to 3.37705e-05
Heightened Def Con from 3.37711e-05 to 3.37761e-05
Heightened Def Con from 3.39276e-05 to 3.39295e-05
Heightened Def Con from 3.39494e-05 to 3.39524e-05
Heightened Def Con from 3.39729e-05 to 3.39759e-05
Heightened Def Con from 3.44456e-05 to 3.44459e-05
Heightened Def Con from 3.61243e-05 to 3.61353e-05
Heightened Def Con from 3.61631e-05 to 3.61633e-05
Heightened Def Con from 3.6164e-05 to 3.6169e-05
Heightened Def Con from 3.62616e-05 to 3.62726e-05
Heightened Def Con from 3.62812e-05 to 3.62819e-05
Heightened Def Con from 3.69338e-05 to 3.69338e-05
Heightened Def Con from 3.69338e-05 to 3.69338e-05
Heightened Def Con from 3.6934e-05 to 3.69348e-05
Heightened Def Con from 3.84445e-05 +++++++++++++++++++++++++++++++++to 3.84455e-05
Heightened Def Con from 3.84455e-05 to 3.84595e-05
Heightened Def Con from 3.87e-05 to 3.87019e-05
Heightened Def Con from 3.92143e-05 to 3.92154e-05
Heightened Def Con from 3.92155e-05 to 3.92158e-05
Heightened Def Con from 3.94332e-05 to 3.94372e-05
Heightened Def Con from 3.94417e-05 to 3.94497e-05
Heightened Def Con from 3.94586e-05 to 3.94646e-05
Heightened Def Con from 4.03387e-05 to 4.03408e-05
Heightened Def Con from 4.03408e-05 to 4.03412e-05
Heightened Def Con from 4.03451e-05 to 4.03453e-05
Heightened Def Con from 4.03453e-05 to 4.03573e-05
Heightened Def Con from 4.04636e-05 to 4.04676e-05
Heightened Def Con from 4.04948e-05 to 4.04959e-05
Heightened Def Con from 4.04984e-05 to 4.04991e-05
Heightened Def Con from 4.07113e-05 to 4.07163e-05
Heightened Def Con from 4.10213e-05 to 4.10213e-05
Heightened Def Con from 4.10213e-05 to 4.10213e-05
Heightened Def Con from 4.10219e-05 to 4.10219e-05
Heightened Def Con from 4.10219e-05 to 4.10219e-05
Heightened Def Con from 4.10219e-05 to 4.10219e-05
Heightened Def Con from 4.1022e-05 to 4.10229e-05
Heightened Def Con from 4.29977e-05 to 4.30127e-05
Heightened Def Con from 4.31668e-05 to 4.31688e-05
Heightened Def Con from 4.36799e-05 to 4.36811e-05
Heightened Def Con from 4.36812e-05 to 4.36821e-05
Heightened Def Con from 4.37289e-05 to 4.37339e-05
Heightened Def Con from 4.48098e-05 to 4.48109e-05
Heightened Def Con from 4.48138e-05 to 4.48258e-05
Heightened Def Con from 4.49713e-05 to 4.49713e-05
Heightened Def Con from 4.49726e-05 to 4.49733e-05
Heightened Def Con from 4.52517e-05 to 4.52557e-05
Heightened Def Con from 4.52687e-05 to 4.52727e-05
Heightened Def Con from 4.54896e-05 to 4.54905e-05
Heightened Def Con from 4.73754e-05 +++++++++++++++++++++++++++++++++to 4.73765e-05
Heightened Def Con from 4.73765e-05 to 4.73895e-05
Heightened Def Con from 4.75164e-05 to 4.75204e-05
Heightened Def Con from 4.7675e-05 to 4.76763e-05
Heightened Def Con from 4.78412e-05 to 4.78432e-05
Heightened Def Con from 4.83592e-05 to 4.83603e-05
Heightened Def Con from 4.83604e-05 to 4.83613e-05
Heightened Def Con from 4.83766e-05 to 4.83806e-05
Heightened Def Con from 4.89993e-05 to 4.90103e-05
Heightened Def Con from 4.91567e-05 to 4.91573e-05
Heightened Def Con from 4.93379e-05 to 4.93409e-05
Heightened Def Con from 4.96753e-05 to 4.96753e-05
Heightened Def Con from 4.96753e-05 to 4.96753e-05
Heightened Def Con from 4.96754e-05 to 4.96754e-05
Heightened Def Con from 4.96754e-05 to 4.96763e-05
Heightened Def Con from 5.17169e-05 to 5.17199e-05
Heightened Def Con from 5.19555e-05 to 5.19625e-05
Heightened Def Con from 5.197e-05 to 5.1981e-05
Heightened Def Con from 5.20143e-05 to 5.20223e-05
Heightened Def Con from 5.2679e-05 to 5.26799e-05
Heightened Def Con from 5.268e-05 to 5.26808e-05
Heightened Def Con from 5.3622e-05 to 5.36231e-05
Heightened Def Con from 5.3627e-05 to 5.3638e-05
Heightened Def Con from 5.37842e-05 to 5.37848e-05
Heightened Def Con from 5.41412e-05 to 5.41452e-05
Heightened Def Con from 5.43018e-05 to 5.43018e-05
Heightened Def Con from 5.43025e-05 to 5.43025e-05
Heightened Def Con from 5.43025e-05 to 5.43025e-05
Heightened Def Con from 5.43025e-05 to 5.43025e-05
Heightened Def Con from 5.43025e-05 to 5.43034e-05
Heightened Def Con from 5.62909e-05 to 5.62949e-05
Heightened Def Con from 5.62952e-05 to 5.63012e-05
Heightened Def Con from 5.65336e-05 to 5.65406e-05
Heightened Def Con from 5.65413e-05 to 5.65423e-05
Heightened Def Con from 5.66907e-05 to 5.66927e-05
Heightened Def Con from 5.72107e-05 to 5.72119e-05
Heightened Def Con from 5.7212e-05 to 5.72129e-05
Heightened Def Con from 5.72668e-05 to 5.72698e-05
Heightened Def Con from 5.82636e-05 to 5.82637e-05
Heightened Def Con from 5.82666e-05 to 5.82776e-05
Heightened Def Con from 5.84232e-05 to 5.84232e-05
Heightened Def Con from 5.84238e-05 to 5.84244e-05
Heightened Def Con from 5.86967e-05 to 5.87007e-05
Heightened Def Con from 5.89405e-05 to 5.89405e-05
Heightened Def Con from 5.89405e-05 to 5.89405e-05
Heightened Def Con from 5.89405e-05 to 5.89405e-05
Heightened Def Con from 5.89405e-05 to 5.89405e-05
Heightened Def Con from 5.89406e-05 to 5.89406e-05
Heightened Def Con from 5.89406e-05 to 5.89406e-05
Heightened Def Con from 5.89407e-05 to 5.89415e-05
Heightened Def Con from 6.07476e-05 +++++++++++++++++++++++++++++++++to 6.07486e-05
Heightened Def Con from 6.07486e-05 to 6.07488e-05
Heightened Def Con from 6.1672e-05 to 6.16732e-05
Heightened Def Con from 6.16733e-05 to 6.16751e-05
Heightened Def Con from 6.1747e-05 to 6.1761e-05
Heightened Def Con from 6.17658e-05 to 6.17698e-05
Heightened Def Con from 6.25017e-05 to 6.25069e-05
Heightened Def Con from 6.25206e-05 to 6.25258e-05
Heightened Def Con from 6.25296e-05 to 6.25304e-05
Heightened Def Con from 6.2683e-05 to 6.26837e-05
Heightened Def Con from 6.31994e-05 to 6.32014e-05
Heightened Def Con from 6.3202e-05 to 6.3202e-05
Heightened Def Con from 6.3202e-05 to 6.3202e-05
Heightened Def Con from 6.3202e-05 to 6.3202e-05
Heightened Def Con from 6.3202e-05 to 6.3202e-05
Heightened Def Con from 6.3202e-05 to 6.3202e-05
Heightened Def Con from 6.3202e-05 to 6.3202e-05
Heightened Def Con from 6.32021e-05 to 6.3203e-05
Heightened Def Con from 6.48882e-05 +++++++++++++++++++++++++++++++++to 6.48893e-05
Heightened Def Con from 6.48893e-05 to 6.48895e-05
Heightened Def Con from 6.50384e-05 to 6.50403e-05
Heightened Def Con from 6.57707e-05 to 6.5772e-05
Heightened Def Con from 6.5772e-05 to 6.57738e-05
Heightened Def Con from 6.58967e-05 to 6.59037e-05
Heightened Def Con from 6.67903e-05 to 6.67945e-05
Heightened Def Con from 6.67949e-05 to 6.68079e-05
Heightened Def Con from 6.68907e-05 to 6.68937e-05
Heightened Def Con from 6.69037e-05 to 6.69097e-05
Heightened Def Con from 6.69417e-05 to 6.69447e-05
Heightened Def Con from 6.69472e-05 to 6.69479e-05
Heightened Def Con from 6.74732e-05 to 6.74732e-05
Heightened Def Con from 6.74738e-05 to 6.74738e-05
Heightened Def Con from 6.74738e-05 to 6.74739e-05
Heightened Def Con from 6.74739e-05 to 6.74739e-05
Heightened Def Con from 6.74739e-05 +to 6.74739e-05
Heightened Def Con from 6.74739e-05 to 6.74739e-05
Heightened Def Con from 6.74739e-05 to 6.74739e-05
Heightened Def Con from 6.74739e-05 to 6.74739e-05
Heightened Def Con from 6.74739e-05 to 6.74739e-05
Heightened Def Con from 6.74739e-05 to 6.74739e-05
Heightened Def Con from 6.74739e-05 to 6.74739e-05
Heightened Def Con from 6.74739e-05 to 6.74739e-05
Heightened Def Con from 6.7474e-05 to 6.74749e-05
Heightened Def Con from 6.91264e-05 +++++++++++++++++++++++++++++++++to 6.91274e-05
Heightened Def Con from 6.91274e-05 to 6.91275e-05
Heightened Def Con from 6.91279e-05 to 6.91329e-05
Heightened Def Con from 6.92224e-05 to 6.92254e-05
Heightened Def Con from 6.93072e-05 to 6.93091e-05
Heightened Def Con from 6.9826e-05 to 6.98272e-05
Heightened Def Con from 6.98273e-05 to 6.98282e-05
Heightened Def Con from 7.10915e-05 to 7.11025e-05
Heightened Def Con from 7.111e-05 to 7.1118e-05
Heightened Def Con from 7.11374e-05 to 7.11484e-05
Heightened Def Con from 7.12891e-05 to 7.12892e-05
Heightened Def Con from 7.12902e-05 to 7.12908e-05
Heightened Def Con from 7.12958e-05 to 7.13008e-05
Heightened Def Con from 7.18e-05 to 7.18e-05
Heightened Def Con from 7.18e-05 to 7.18e-05
Heightened Def Con from 7.18e-05 to 7.18e-05
Heightened Def Con from 7.18e-05 to 7.18e-05
Heightened Def Con from 7.18e-05 to 7.18e-05
Heightened Def Con from 7.18e-05 to 7.18e-05
Heightened Def Con from 7.18007e-05 to 7.18007e-05
Heightened Def Con from 7.18007e-05 to 7.18007e-05
Heightened Def Con from 7.18008e-05 to 7.18008e-05
Heightened Def Con from 7.18008e-05 to 7.18008e-05
Heightened Def Con from 7.18008e-05 to 7.18017e-05
Heightened Def Con from 7.33101e-05 +++++++++++++++++++++++++++++++++to 7.33112e-05
Heightened Def Con from 7.33112e-05 to 7.33252e-05
Heightened Def Con from 7.35524e-05 to 7.35543e-05
Heightened Def Con from 7.40679e-05 to 7.40692e-05
Heightened Def Con from 7.40692e-05 to 7.40701e-05
Heightened Def Con from 7.43084e-05 to 7.43154e-05
Heightened Def Con from 7.43238e-05 to 7.43278e-05
Heightened Def Con from 7.46379e-05 to 7.46399e-05
Heightened Def Con from 7.55098e-05 to 7.55208e-05
Heightened Def Con from 7.56298e-05 to 7.56368e-05
Heightened Def Con from 7.5637e-05 to 7.5642e-05
Heightened Def Con from 7.56632e-05 to 7.56643e-05
Heightened Def Con from 7.56644e-05 to 7.5665e-05
Heightened Def Con from 7.6186e-05 to 7.6186e-05
Heightened Def Con from 7.61861e-05 to 7.61861e-05
Heightened Def Con from 7.61861e-05 to 7.61861e-05
Heightened Def Con from 7.61862e-05 to 7.6187e-05
Heightened Def Con from 7.75753e-05 +++++++++++++++++++++++++++++++++to 7.75763e-05
Heightened Def Con from 7.75763e-05 to 7.75903e-05
Heightened Def Con from 7.77162e-05 to 7.77202e-05
Heightened Def Con from 7.78754e-05 to 7.78773e-05
Heightened Def Con from 7.83883e-05 to 7.83896e-05
Heightened Def Con from 7.83896e-05 to 7.83905e-05
Heightened Def Con from 7.85723e-05 to 7.85763e-05
Heightened Def Con from 7.85916e-05 to 7.85946e-05
Heightened Def Con from 7.98066e-05 to 7.98176e-05
Heightened Def Con from 7.9825e-05 to 7.98261e-05
Heightened Def Con from 7.98485e-05 to 7.98605e-05
Heightened Def Con from 7.99826e-05 to 7.99866e-05
Heightened Def Con from 7.99993e-05 to 7.99993e-05
Heightened Def Con from 7.99994e-05 to 7.99994e-05
Heightened Def Con from 8.00009e-05 to 8.0001e-05
Heightened Def Con from 8.00011e-05 to 8.00018e-05
Heightened Def Con from 8.0514e-05 to 8.0514e-05
Heightened Def Con from 8.05141e-05 to 8.05141e-05
Heightened Def Con from 8.05141e-05 to 8.05141e-05
Heightened Def Con from 8.05141e-05 to 8.05141e-05
Heightened Def Con from 8.05141e-05 to 8.05141e-05
Heightened Def Con from 8.05141e-05 to 8.05141e-05
Heightened Def Con from 8.05141e-05 to 8.0515e-05
Heightened Def Con from 8.20734e-05 +++++++++++++++++++++++++++++++++to 8.20745e-05
Heightened Def Con from 8.20745e-05 to 8.20746e-05
Heightened Def Con from 8.27564e-05 to 8.27594e-05
Heightened Def Con from 8.2765e-05 to 8.27661e-05
Heightened Def Con from 8.27662e-05 to 8.27671e-05
Heightened Def Con from 8.28064e-05 to 8.28114e-05
Heightened Def Con from 8.3265e-05 to 8.3267e-05
Heightened Def Con from 8.40562e-05 to 8.40624e-05
Heightened Def Con from 8.40624e-05 to 8.40704e-05
Heightened Def Con from 8.40836e-05 to 8.40946e-05
Heightened Def Con from 8.41541e-05 to 8.41571e-05
Heightened Def Con from 8.4231e-05 to 8.42322e-05
Heightened Def Con from 8.42323e-05 to 8.42329e-05
Heightened Def Con from 8.42651e-05 to 8.42711e-05
Heightened Def Con from 8.47593e-05 to 8.47593e-05
Heightened Def Con from 8.47594e-05 to 8.47594e-05
Heightened Def Con from 8.47594e-05 to 8.47603e-05
Heightened Def Con from 8.63545e-05 to 8.63595e-05
Heightened Def Con from 8.64033e-05 to 8.64143e-05
Heightened Def Con from 8.64274e-05 to 8.64284e-05
Heightened Def Con from 8.64676e-05 to 8.64706e-05
Heightened Def Con from 8.65023e-05 to 8.65024e-05
Heightened Def Con from 8.70726e-05 to 8.70737e-05
Heightened Def Con from 8.8503e-05 to 8.85101e-05
Heightened Def Con from 8.85299e-05 to 8.85341e-05
Heightened Def Con from 8.85341e-05 to 8.85511e-05
Heightened Def Con from 8.8695e-05 to 8.86956e-05
Heightened Def Con from 8.87569e-05 to 8.87639e-05
Heightened Def Con from 8.92157e-05 to 8.92157e-05
Heightened Def Con from 8.92158e-05 to 8.92167e-05
Heightened Def Con from 9.05519e-05 +++++++++++++++++++++++++++++++++to 9.05529e-05
Heightened Def Con from 9.05529e-05 to 9.05649e-05
Heightened Def Con from 9.0961e-05 to 9.0969e-05
Heightened Def Con from 9.11219e-05 to 9.11239e-05
Heightened Def Con from 9.16355e-05 to 9.16355e-05
Heightened Def Con from 9.16357e-05 to 9.16358e-05
Heightened Def Con from 9.16359e-05 to 9.1636e-05
Heightened Def Con from 9.16361e-05 to 9.16421e-05
Heightened Def Con from 9.16814e-05 to 9.16864e-05
Heightened Def Con from 9.27976e-05 to 9.27993e-05
Heightened Def Con from 9.29491e-05 to 9.29497e-05
Heightened Def Con from 9.34726e-05 to 9.34726e-05
Heightened Def Con from 9.34727e-05 to 9.34735e-05
Heightened Def Con from 9.51538e-05 +++++++++++++++++++++++++++++++++to 9.51548e-05
Heightened Def Con from 9.51548e-05 to 9.51549e-05
Heightened Def Con from 9.5307e-05 to 9.53089e-05
Heightened Def Con from 9.59764e-05 to 9.59776e-05
Heightened Def Con from 9.59776e-05 to 9.59785e-05
Heightened Def Con from 9.6937e-05 to 9.69373e-05
Heightened Def Con from 9.69378e-05 to 9.69488e-05
Heightened Def Con from 9.70951e-05 to 9.70957e-05
Heightened Def Con from 9.76131e-05 to 9.76131e-05
Heightened Def Con from 9.76131e-05 to 9.76131e-05
Heightened Def Con from 9.76131e-05 to 9.76131e-05
Heightened Def Con from 9.76131e-05 to 9.76131e-05
Heightened Def Con from 9.76131e-05 +to 9.76131e-05
Heightened Def Con from 9.76131e-05 to 9.7614e-05
Heightened Def Con from 9.9497e-05 to 9.9505e-05
Heightened Def Con from 9.95182e-05 to 9.95262e-05
Heightened Def Con from 9.96656e-05 to 9.96736e-05
Heightened Def Con from 9.97784e-05 to 9.97814e-05
Heightened Def Con from 0.00010018 to 0.000100182
Heightened Def Con from 0.000100182 to 0.000100183
Heightened Def Con from 0.000101443 to 0.000101446
Heightened Def Con from 0.000101446 to 0.000101447
Heightened Def Con from 0.00010145 to 0.000101461
Heightened Def Con from 0.000101607 to 0.000101607
Heightened Def Con from 0.000101608 to 0.000101608
Heightened Def Con from 0.000101789 to 0.000101792
Heightened Def Con from 0.000102127 to 0.000102127
Heightened Def Con from 0.000102127 to 0.000102127
Heightened Def Con from 0.000102127 to 0.000102127
Heightened Def Con from 0.000102127 to 0.000102128
Heightened Def Con from 0.000103899 to 0.000103902
Heightened Def Con from 0.000103929 to 0.000103935
Heightened Def Con from 0.000104029 to 0.00010403
Heightened Def Con from 0.00010403 to 0.000104038
Heightened Def Con from 0.000104182 to 0.000104182
Heightened Def Con from 0.000104701 to 0.000104702
Heightened Def Con from 0.000104702 to 0.000104703
Heightened Def Con from 0.000104745 to 0.00010475
Heightened Def Con from 0.000105965 to 0.000105976
Heightened Def Con from 0.000106121 to 0.000106122
Heightened Def Con from 0.000106122 to 0.000106122
Heightened Def Con from 0.000106299 to 0.000106303
Heightened Def Con from 0.000106638 to 0.000106638
Heightened Def Con from 0.000106638 to 0.000106638
Heightened Def Con from 0.000106638 to 0.000106638
Heightened Def Con from 0.000106638 to 0.000106639
Heightened Def Con from 0.000108549 to 0.00010855
Heightened Def Con from 0.000108551 to 0.000108552
Heightened Def Con from 0.000108553 to 0.000108558
Heightened Def Con from 0.000109221 to 0.000109223
Heightened Def Con from 0.000109223 to 0.000109224
Heightened Def Con from 0.000110526 to 0.000110537
Heightened Def Con from 0.000110548 to 0.00011055
Heightened Def Con from 0.000110576 to 0.000110576
Heightened Def Con from 0.000110577 to 0.000110588
Heightened Def Con from 0.000110721 to 0.000110721
Heightened Def Con from 0.000110722 to 0.000110723
Heightened Def Con from 0.000111245 to 0.000111245
Heightened Def Con from 0.000111245 to 0.000111245
Heightened Def Con from 0.000111245 to 0.000111245
Heightened Def Con from 0.000111245 to 0.000111245
Heightened Def Con from 0.000111245 to 0.000111245
Heightened Def Con from 0.000111245 to 0.000111246
Heightened Def Con from 0.000112824 +++++++++++++++++++++++++++++++++to 0.000112825
Heightened Def Con from 0.000112825 to 0.000112839
Heightened Def Con from 0.000113094 to 0.000113095
Heightened Def Con from 0.000113251 to 0.000113259
Heightened Def Con from 0.000113764 to 0.000113767
Heightened Def Con from 0.000113767 to 0.000113768
Heightened Def Con from 0.000113768 to 0.000113769
Heightened Def Con from 0.000113821 to 0.000113829
Heightened Def Con from 0.000113839 to 0.000113842
Heightened Def Con from 0.000114955 to 0.000114955
Heightened Def Con from 0.000114955 to 0.000114967
Heightened Def Con from 0.000115114 to 0.000115115
Heightened Def Con from 0.000115635 to 0.000115635
Heightened Def Con from 0.000115635 to 0.000115635
Heightened Def Con from 0.000115635 to 0.000115635
Heightened Def Con from 0.000115635 to 0.000115635
Heightened Def Con from 0.000115635 to 0.000115635
Heightened Def Con from 0.000115635 to 0.000115635
Heightened Def Con from 0.000115635 to 0.000115635
Heightened Def Con from 0.000115635 to 0.000115635
Heightened Def Con from 0.000115635 to 0.000115635
Heightened Def Con from 0.000115635 to 0.000115635
Heightened Def Con from 0.000115635 to 0.000115635
Heightened Def Con from 0.000115635 to 0.000115636
Heightened Def Con from 0.000117117 +++++++++++++++++++++++++++++++++to 0.000117118
Heightened Def Con from 0.000117118 to 0.000117133
Heightened Def Con from 0.000117415 to 0.000117415
Heightened Def Con from 0.000117415 to 0.000117415
Heightened Def Con from 0.000117415 to 0.000117419
Heightened Def Con from 0.000117571 to 0.000117573
Heightened Def Con from 0.000118068 to 0.000118071
Heightened Def Con from 0.000118077 to 0.00011808
Heightened Def Con from 0.000118081 to 0.000118082
Heightened Def Con from 0.000118082 to 0.000118083
Heightened Def Con from 0.000118122 to 0.000118127
Heightened Def Con from 0.000118132 to 0.000118136
Heightened Def Con from 0.000119311 to 0.000119322
Heightened Def Con from 0.000119467 to 0.000119468
Heightened Def Con from 0.000119468 to 0.000119469
Heightened Def Con from 0.000119985 to 0.000119985
Heightened Def Con from 0.000119986 to 0.000119986
Heightened Def Con from 0.000119986 to 0.000119986
Heightened Def Con from 0.000119986 to 0.000119987
Heightened Def Con from 0.000121641 +++++++++++++++++++++++++++++++++to 0.000121642
Heightened Def Con from 0.000121642 to 0.000121655
Heightened Def Con from 0.000122322 to 0.000122325
Heightened Def Con from 0.000122389 to 0.00012239
Heightened Def Con from 0.00012239 to 0.000122391
Heightened Def Con from 0.000123586 to 0.000123597
Heightened Def Con from 0.000123741 to 0.000123742
Heightened Def Con from 0.000123742 to 0.000123743
Heightened Def Con from 0.000123796 to 0.0001238
Heightened Def Con from 0.000123803 to 0.000123808
Heightened Def Con from 0.00012426 to 0.00012426
Heightened Def Con from 0.00012426 to 0.00012426
Heightened Def Con from 0.00012426 to 0.00012426
Heightened Def Con from 0.00012426 to 0.00012426
Heightened Def Con from 0.00012426 to 0.00012426
Heightened Def Con from 0.000124261 to 0.000124261
Heightened Def Con from 0.000125831 +++++++++++++++++++++++++++++++++to 0.000125832
Heightened Def Con from 0.000125832 to 0.000125832
Heightened Def Con from 0.000125977 to 0.000125979
Heightened Def Con from 0.000126622 to 0.000126623
Heightened Def Con from 0.000126623 to 0.000126624
Heightened Def Con from 0.000126815 to 0.000126818
Heightened Def Con from 0.000126824 to 0.000126828
Heightened Def Con from 0.00012683 to 0.000126838
Heightened Def Con from 0.00012684 to 0.000126844
Heightened Def Con from 0.000126845 to 0.000126848
Heightened Def Con from 0.000127754 to 0.000127759
Heightened Def Con from 0.000127759 to 0.000127764
Heightened Def Con from 0.000127768 to 0.000127772
Heightened Def Con from 0.000127773 to 0.000127784
Heightened Def Con from 0.000127814 to 0.000127819
Heightened Def Con from 0.000127845 to 0.000127848
Heightened Def Con from 0.000127928 to 0.000127928
Heightened Def Con from 0.00012793 to 0.000127931
Heightened Def Con from 0.00012804 to 0.000128052
Heightened Def Con from 0.000128447 to 0.000128447
Heightened Def Con from 0.000128447 to 0.000128447
Heightened Def Con from 0.000128448 to 0.000128448
Heightened Def Con from 0.000128448 to 0.000128448
Heightened Def Con from 0.000128448 to 0.000128449
Heightened Def Con from 0.000130018 to 0.000130029
Heightened Def Con from 0.00013014 to 0.000130141
Heightened Def Con from 0.000130142 to 0.000130148
Heightened Def Con from 0.000130148 to 0.00013015
Heightened Def Con from 0.00013081 to 0.000130811
Heightened Def Con from 0.000130811 to 0.000130812
Heightened Def Con from 0.000132195 to 0.000132206
Heightened Def Con from 0.000132226 to 0.000132227
Heightened Def Con from 0.000132227 to 0.000132234
Heightened Def Con from 0.000132255 to 0.000132267
Heightened Def Con from 0.000132349 to 0.000132349
Heightened Def Con from 0.00013247 to 0.000132474
Heightened Def Con from 0.000132517 to 0.00013252
Heightened Def Con from 0.000132923 to 0.000132923
Heightened Def Con from 0.000132923 to 0.000132923
Heightened Def Con from 0.000132923 to 0.000132923
Heightened Def Con from 0.000132923 to 0.000132923
Heightened Def Con from 0.000132923 to 0.000132923
Heightened Def Con from 0.000132923 to 0.000132923
Heightened Def Con from 0.000132923 to 0.000132924
Heightened Def Con from 0.000134456 +++++++++++++++++++++++++++++++++to 0.000134457
Heightened Def Con from 0.000134457 to 0.000134471
Heightened Def Con from 0.000135327 to 0.000135328
Heightened Def Con from 0.000135328 to 0.000135329
Heightened Def Con from 0.000135456 to 0.000135462
Heightened Def Con from 0.000135466 to 0.00013547
Heightened Def Con from 0.000136603 to 0.000136604
Heightened Def Con from 0.000136754 to 0.000136754
Heightened Def Con from 0.000136755 to 0.000136755
Heightened Def Con from 0.000137275 to 0.000137276
Heightened Def Con from 0.000138943 to 0.000138948
Heightened Def Con from 0.000138969 to 0.00013898
Heightened Def Con from 0.000139036 to 0.000139044
Heightened Def Con from 0.000139083 to 0.000139083
Heightened Def Con from 0.000139702 to 0.000139703
Heightened Def Con from 0.000139703 to 0.000139704
Heightened Def Con from 0.000141046 to 0.000141057
Heightened Def Con from 0.0001412 to 0.000141202
Heightened Def Con from 0.000141204 to 0.000141204
Heightened Def Con from 0.000141312 to 0.00014132
Heightened Def Con from 0.00014132 to 0.000141324
Heightened Def Con from 0.000141724 to 0.000141724
Heightened Def Con from 0.000141724 to 0.000141725
Heightened Def Con from 0.000143138 +++++++++++++++++++++++++++++++++to 0.000143139
Heightened Def Con from 0.000143139 to 0.000143154
Heightened Def Con from 0.000143518 to 0.000143521
Heightened Def Con from 0.000143524 to 0.000143526
Heightened Def Con from 0.000143526 to 0.000143527
Heightened Def Con from 0.000143656 to 0.000143659
Heightened Def Con from 0.000143678 to 0.000143678
Heightened Def Con from 0.000144193 to 0.000144194
Heightened Def Con from 0.000144194 to 0.000144195
Heightened Def Con from 0.000145373 to 0.000145384
Heightened Def Con from 0.00014553 to 0.00014553
Heightened Def Con from 0.000145531 to 0.000145531
Heightened Def Con from 0.000145659 to 0.000145664
Heightened Def Con from 0.000146046 to 0.000146048
Heightened Def Con from 0.000146049 to 0.000146049
Heightened Def Con from 0.000146049 to 0.000146049
Heightened Def Con from 0.000146049 to 0.000146049
Heightened Def Con from 0.000146049 to 0.00014605
Heightened Def Con from 0.000146891 to 0.000146895
Heightened Def Con from 0.000147662 +++++++++++++++++++++++++++++++++to 0.000147663
Heightened Def Con from 0.000147663 to 0.000147677
Heightened Def Con from 0.000147803 to 0.000147811
Heightened Def Con from 0.000148053 to 0.000148055
Heightened Def Con from 0.000148566 to 0.000148567
Heightened Def Con from 0.000148567 to 0.000148568
Heightened Def Con from 0.000148643 to 0.000148647
Heightened Def Con from 0.000149643 to 0.000149654
Heightened Def Con from 0.000149798 to 0.000149799
Heightened Def Con from 0.000149799 to 0.0001498
Heightened Def Con from 0.000150318 to 0.000150318
Heightened Def Con from 0.000150318 to 0.000150318
Heightened Def Con from 0.000150318 to 0.000150318
Heightened Def Con from 0.000150318 to 0.000150319
Heightened Def Con from 0.000152068 +++++++++++++++++++++++++++++++++to 0.000152069
Heightened Def Con from 0.000152069 to 0.000152081
Heightened Def Con from 0.000152319 to 0.000152321
Heightened Def Con from 0.000152831 to 0.000152832
Heightened Def Con from 0.000152832 to 0.000152833
Heightened Def Con from 0.000152872 to 0.000152877
Heightened Def Con from 0.000152907 to 0.000152911
Heightened Def Con from 0.000153059 to 0.000153064
Heightened Def Con from 0.000153066 to 0.000153073
Heightened Def Con from 0.000153077 to 0.000153081
Heightened Def Con from 0.000153907 to 0.000153918
Heightened Def Con from 0.000154064 to 0.000154065
Heightened Def Con from 0.000154085 to 0.000154089
Heightened Def Con from 0.000154247 to 0.00015425
Heightened Def Con from 0.000154581 to 0.000154581
Heightened Def Con from 0.000154581 to 0.000154581
Heightened Def Con from 0.000154581 to 0.000154581
Heightened Def Con from 0.000154581 to 0.000154581
Heightened Def Con from 0.000154581 to 0.000154582
Heightened Def Con from 0.000156315 to 0.000156323
Heightened Def Con from 0.000156351 to 0.000156354
Heightened Def Con from 0.000156395 to 0.000156396
Heightened Def Con from 0.000156397 to 0.0001564
Heightened Def Con from 0.0001564 to 0.000156404
Heightened Def Con from 0.00015646 to 0.00015646
Heightened Def Con from 0.00015646 to 0.000156468
Heightened Def Con from 0.000157061 to 0.000157063
Heightened Def Con from 0.000157063 to 0.000157064
Heightened Def Con from 0.000157746 to 0.000157748
Heightened Def Con from 0.000158463 to 0.000158473
Heightened Def Con from 0.000158473 to 0.000158481
Heightened Def Con from 0.000158487 to 0.000158487
Heightened Def Con from 0.000158487 to 0.0001585
Heightened Def Con from 0.000158644 to 0.000158644
Heightened Def Con from 0.000158644 to 0.000158645
Heightened Def Con from 0.000158747 to 0.00015875
Heightened Def Con from 0.000159158 to 0.000159159
Heightened Def Con from 0.00016064 +++++++++++++++++++++++++++++++++to 0.000160641
Heightened Def Con from 0.000160641 to 0.000160656
Heightened Def Con from 0.000160951 to 0.000160952
Heightened Def Con from 0.000161086 to 0.000161089
Heightened Def Con from 0.000161108 to 0.00016111
Heightened Def Con from 0.000161622 to 0.000161623
Heightened Def Con from 0.000161623 to 0.000161624
Heightened Def Con from 0.000161634 to 0.000161639
Heightened Def Con from 0.000161653 to 0.000161657
Heightened Def Con from 0.000162845 to 0.000162856
Heightened Def Con from 0.00016286 to 0.000162861
Heightened Def Con from 0.000162867 to 0.000162879
Heightened Def Con from 0.000163016 to 0.000163016
Heightened Def Con from 0.000163017 to 0.000163017
Heightened Def Con from 0.000163534 to 0.000163534
Heightened Def Con from 0.000163534 to 0.000163535
Heightened Def Con from 0.000165065 +++++++++++++++++++++++++++++++++to 0.000165066
Heightened Def Con from 0.000165066 to 0.000165066
Heightened Def Con from 0.000165215 to 0.000165217
Heightened Def Con from 0.00016599 to 0.000165991
Heightened Def Con from 0.000165991 to 0.000165992
Heightened Def Con from 0.000166012 to 0.000166015
Heightened Def Con from 0.000166075 to 0.000166082
Heightened Def Con from 0.000167012 to 0.000167014
Heightened Def Con from 0.000167015 to 0.000167015
Heightened Def Con from 0.000167015 to 0.000167026
Heightened Def Con from 0.000167055 to 0.000167061
Heightened Def Con from 0.000167082 to 0.000167086
Heightened Def Con from 0.000167168 to 0.000167169
Heightened Def Con from 0.000167169 to 0.00016717
Heightened Def Con from 0.000167311 to 0.000167314
Heightened Def Con from 0.000167317 to 0.000167321
Heightened Def Con from 0.000167691 to 0.000167691
Heightened Def Con from 0.000167691 to 0.000167691
Heightened Def Con from 0.000167691 to 0.000167691
Heightened Def Con from 0.000167691 to 0.000167691
Heightened Def Con from 0.000167691 to 0.000167691
Heightened Def Con from 0.000167691 to 0.000167692
Heightened Def Con from 0.000169394 to 0.000169397
Heightened Def Con from 0.000169435 to 0.000169436
Heightened Def Con from 0.000169436 to 0.000169437
Heightened Def Con from 0.000169437 to 0.000169442
Heightened Def Con from 0.000170106 to 0.000170107
Heightened Def Con from 0.000170107 to 0.000170108
Heightened Def Con from 0.000171558 to 0.00017156
Heightened Def Con from 0.00017156 to 0.000171564
Heightened Def Con from 0.00017157 to 0.000171581
Heightened Def Con from 0.000171727 to 0.000171728
Heightened Def Con from 0.000171843 to 0.000171846
Heightened Def Con from 0.000172237 to 0.000172239
Heightened Def Con from 0.000172245 to 0.000172245
Heightened Def Con from 0.000172245 to 0.000172245
Heightened Def Con from 0.000172245 to 0.000172246
Heightened Def Con from 0.00017393 to 0.000173938
Heightened Def Con from 0.00017397 to 0.000173981
Heightened Def Con from 0.000174011 to 0.000174013
Heightened Def Con from 0.000174065 to 0.000174068
Heightened Def Con from 0.000174667 to 0.000174668
Heightened Def Con from 0.000174668 to 0.000174669
Heightened Def Con from 0.000174708 to 0.000174713
Heightened Def Con from 0.000176066 to 0.000176078
Heightened Def Con from 0.000176223 to 0.000176224
Heightened Def Con from 0.000176224 to 0.000176225
Heightened Def Con from 0.000176226 to 0.000176232
Heightened Def Con from 0.000176305 to 0.000176309
Heightened Def Con from 0.000176744 to 0.000176744
Heightened Def Con from 0.000176744 to 0.000176744
Heightened Def Con from 0.000176744 to 0.000176745
Heightened Def Con from 0.000178286 +++++++++++++++++++++++++++++++++to 0.000178287
Heightened Def Con from 0.000178287 to 0.000178301
Heightened Def Con from 0.00017846 to 0.000178464
Heightened Def Con from 0.000179183 to 0.000179183
Heightened Def Con from 0.000179183 to 0.000179184
Heightened Def Con from 0.000179184 to 0.000179188
Heightened Def Con from 0.000179227 to 0.000179232
Heightened Def Con from 0.000179287 to 0.000179292
Heightened Def Con from 0.000179298 to 0.000179302
Heightened Def Con from 0.000180389 to 0.000180392
Heightened Def Con from 0.000180395 to 0.000180406
Heightened Def Con from 0.000180552 to 0.000180553
Heightened Def Con from 0.000181069 to 0.000181069
Heightened Def Con from 0.000181069 to 0.000181069
Heightened Def Con from 0.000181069 to 0.000181069
Heightened Def Con from 0.000181069 to 0.00018107
Heightened Def Con from 0.000182509 +++++++++++++++++++++++++++++++++to 0.00018251
Heightened Def Con from 0.00018251 to 0.000182525
Heightened Def Con from 0.000183018 to 0.000183019
Heightened Def Con from 0.00018351 to 0.000183513
Heightened Def Con from 0.000183534 to 0.000183535
Heightened Def Con from 0.000183535 to 0.000183536
Heightened Def Con from 0.000184733 to 0.000184736
Heightened Def Con from 0.000184736 to 0.00018475
Heightened Def Con from 0.000184893 to 0.000184894
Heightened Def Con from 0.000184896 to 0.000184896
Heightened Def Con from 0.000184897 to 0.000184897
Heightened Def Con from 0.000185005 to 0.000185009
Heightened Def Con from 0.000185416 to 0.000185416
Heightened Def Con from 0.000185416 to 0.000185416
Heightened Def Con from 0.000185416 to 0.000185417
Heightened Def Con from 0.000187066 +++++++++++++++++++++++++++++++++to 0.000187067
Heightened Def Con from 0.000187067 to 0.000187067
Heightened Def Con from 0.000187075 to 0.000187079
Heightened Def Con from 0.000187215 to 0.000187217
Heightened Def Con from 0.000187893 to 0.000187895
Heightened Def Con from 0.000187895 to 0.000187896
Heightened Def Con from 0.000188911 to 0.000188922
Heightened Def Con from 0.000189068 to 0.000189069
Heightened Def Con from 0.000189585 to 0.000189585
Heightened Def Con from 0.000189585 to 0.000189585
Heightened Def Con from 0.000189585 to 0.000189585
Heightened Def Con from 0.000189585 to 0.000189585
Heightened Def Con from 0.000189586 to 0.000189586
Heightened Def Con from 0.000189586 to 0.000189586
Heightened Def Con from 0.000189586 to 0.000189586
Heightened Def Con from 0.000189586 to 0.000189586
Heightened Def Con from 0.000191311 to 0.000191317
Heightened Def Con from 0.000191336 to 0.000191347
Heightened Def Con from 0.000191397 to 0.000191398
Heightened Def Con from 0.000191458 to 0.00019146
Heightened Def Con from 0.000192061 to 0.000192062
Heightened Def Con from 0.000192062 to 0.000192063
Heightened Def Con from 0.000193443 to 0.000193447
Heightened Def Con from 0.000193451 to 0.000193462
Heightened Def Con from 0.000193608 to 0.000193608
Heightened Def Con from 0.000193609 to 0.000193609
Heightened Def Con from 0.00019413 to 0.00019413
Heightened Def Con from 0.00019413 to 0.00019413
Heightened Def Con from 0.00019413 to 0.00019413
Heightened Def Con from 0.00019413 to 0.00019413
Heightened Def Con from 0.000195764 +++++++++++++++++++++++++++++++++to 0.000195765
Heightened Def Con from 0.000195765 to 0.000195765
Heightened Def Con from 0.000195917 to 0.000195919
Heightened Def Con from 0.000196603 to 0.000196604
Heightened Def Con from 0.000196604 to 0.000196605
Heightened Def Con from 0.000196753 to 0.000196757
Heightened Def Con from 0.000196774 to 0.000196778
Heightened Def Con from 0.000197559 to 0.00019757
Heightened Def Con from 0.000197716 to 0.000197717
Heightened Def Con from 0.000197784 to 0.000197792
Heightened Def Con from 0.000198237 to 0.000198237
Heightened Def Con from 0.000198237 to 0.000198237
Heightened Def Con from 0.000198237 to 0.000198237
Heightened Def Con from 0.000199899 +++++++++++++++++++++++++++++++++to 0.0001999
Heightened Def Con from 0.0001999 to 0.000199914
Heightened Def Con from 0.00020006 to 0.000200061
Heightened Def Con from 0.000200217 to 0.000200219
Heightened Def Con from 0.000200723 to 0.000200726
Heightened Def Con from 0.000200733 to 0.000200734
Heightened Def Con from 0.000200734 to 0.000200735
Heightened Def Con from 0.000200775 to 0.00020078
Heightened Def Con from 0.000200892 to 0.000200897
Heightened Def Con from 0.000200897 to 0.000200904
Heightened Def Con from 0.000200913 to 0.000200917
Heightened Def Con from 0.000201862 to 0.000201869
Heightened Def Con from 0.000201869 to 0.000201888
Heightened Def Con from 0.000202028 to 0.000202028
Heightened Def Con from 0.00020208 to 0.000202083
Heightened Def Con from 0.000202187 to 0.000202191
Heightened Def Con from 0.00020255 to 0.00020255
Heightened Def Con from 0.00020255 to 0.00020255
Heightened Def Con from 0.00020255 to 0.00020255
Heightened Def Con from 0.00020255 to 0.00020255
Heightened Def Con from 0.00020255 to 0.00020255
Heightened Def Con from 0.00020255 to 0.000202551
Heightened Def Con from 0.000204211 +++++++++++++++++++++++++++++++++to 0.000204212
Heightened Def Con from 0.000204212 to 0.000204212
Heightened Def Con from 0.000204252 to 0.000204264
Heightened Def Con from 0.000204355 to 0.000204357
Heightened Def Con from 0.000204995 to 0.000204998
Heightened Def Con from 0.000205063 to 0.000205064
Heightened Def Con from 0.000205064 to 0.000205065
Heightened Def Con from 0.000205208 to 0.000205216
Heightened Def Con from 0.00020522 to 0.000205224
Heightened Def Con from 0.000205226 to 0.00020523
Heightened Def Con from 0.000206113 to 0.000206124
Heightened Def Con from 0.000206206 to 0.000206213
Heightened Def Con from 0.000206224 to 0.000206231
Heightened Def Con from 0.000206252 to 0.000206255
Heightened Def Con from 0.000206264 to 0.000206264
Heightened Def Con from 0.000206265 to 0.000206265
Heightened Def Con from 0.00020643 to 0.000206434
Heightened Def Con from 0.000206453 to 0.000206456
Heightened Def Con from 0.000206786 to 0.000206787
Heightened Def Con from 0.000206787 to 0.000206787
Heightened Def Con from 0.000206787 to 0.000206787
Heightened Def Con from 0.000206787 to 0.000206787
Heightened Def Con from 0.000206787 to 0.000206787
Heightened Def Con from 0.000206787 to 0.000206787
Heightened Def Con from 0.000206787 to 0.000206788
Heightened Def Con from 0.000208269 +++++++++++++++++++++++++++++++++to 0.00020827
Heightened Def Con from 0.00020827 to 0.000208285
Heightened Def Con from 0.000208741 to 0.000208742
Heightened Def Con from 0.00020926 to 0.000209261
Heightened Def Con from 0.000209261 to 0.000209262
Heightened Def Con from 0.00020928 to 0.000209284
Heightened Def Con from 0.000210509 to 0.00021051
Heightened Def Con from 0.000210512 to 0.000210523
Heightened Def Con from 0.000210666 to 0.000210668
Heightened Def Con from 0.00021067 to 0.00021067
Heightened Def Con from 0.000210759 to 0.000210763
Heightened Def Con from 0.000211185 to 0.000211187
Heightened Def Con from 0.000211187 to 0.000211187
Heightened Def Con from 0.000211187 to 0.000211187
Heightened Def Con from 0.000211187 to 0.000211187
Heightened Def Con from 0.000211187 to 0.000211187
Heightened Def Con from 0.000211187 to 0.000211188
Heightened Def Con from 0.000212838 +++++++++++++++++++++++++++++++++to 0.000212839
Heightened Def Con from 0.000212839 to 0.000212852
Heightened Def Con from 0.000213421 to 0.000213424
Heightened Def Con from 0.000213623 to 0.000213624
Heightened Def Con from 0.000213624 to 0.000213625
Heightened Def Con from 0.000213828 to 0.000213832
Heightened Def Con from 0.000213838 to 0.000213844
Heightened Def Con from 0.000213853 to 0.000213859
Heightened Def Con from 0.000214788 to 0.000214789
Heightened Def Con from 0.000214789 to 0.000214801
Heightened Def Con from 0.000214837 to 0.000214842
Heightened Def Con from 0.000214849 to 0.000214858
Heightened Def Con from 0.000214947 to 0.000214947
Heightened Def Con from 0.000215101 to 0.00021511
Heightened Def Con from 0.000215465 to 0.000215466
Heightened Def Con from 0.000215466 to 0.000215466
Heightened Def Con from 0.000215466 to 0.000215467
Heightened Def Con from 0.000217103 +++++++++++++++++++++++++++++++++to 0.000217104
Heightened Def Con from 0.000217104 to 0.000217118
Heightened Def Con from 0.000217926 to 0.000217928
Heightened Def Con from 0.000217928 to 0.000217928
Heightened Def Con from 0.000218104 to 0.000218108
Heightened Def Con from 0.000218115 to 0.000218119
Heightened Def Con from 0.000219087 to 0.000219098
Heightened Def Con from 0.000219243 to 0.000219244
Heightened Def Con from 0.000219244 to 0.000219245
Heightened Def Con from 0.000219365 to 0.000219371
Heightened Def Con from 0.000219761 to 0.000219761
Heightened Def Con from 0.000219761 to 0.000219762
Heightened Def Con from 0.000221431 to 0.000221439
Heightened Def Con from 0.000221467 to 0.000221478
Heightened Def Con from 0.000221525 to 0.000221529
Heightened Def Con from 0.000221558 to 0.000221559
Heightened Def Con from 0.000221578 to 0.00022158
Heightened Def Con from 0.000222225 to 0.000222226
Heightened Def Con from 0.000222226 to 0.000222227
Heightened Def Con from 0.000223611 to 0.000223622
Heightened Def Con from 0.000223626 to 0.000223627
Heightened Def Con from 0.000223627 to 0.000223633
Heightened Def Con from 0.000223647 to 0.000223649
Heightened Def Con from 0.00022365 to 0.000223661
Heightened Def Con from 0.000223802 to 0.000223803
Heightened Def Con from 0.000223879 to 0.000223883
Heightened Def Con from 0.000224322 to 0.000224322
Heightened Def Con from 0.000224322 to 0.000224323
Heightened Def Con from 0.000225922 +++++++++++++++++++++++++++++++++to 0.000225923
Heightened Def Con from 0.000225923 to 0.000225923
Heightened Def Con from 0.000226072 to 0.000226072
Heightened Def Con from 0.000226725 to 0.000226726
Heightened Def Con from 0.000226727 to 0.000226727
Heightened Def Con from 0.000227781 to 0.000227792
Heightened Def Con from 0.000227935 to 0.000227936
Heightened Def Con from 0.000227938 to 0.000227939
Heightened Def Con from 0.00022802 to 0.000228026
Heightened Def Con from 0.000228457 to 0.000228458
Heightened Def Con from 0.000229895 +++++++++++++++++++++++++++++++++to 0.000229896
Heightened Def Con from 0.000229896 to 0.000229911
Heightened Def Con from 0.000230223 to 0.000230224
Heightened Def Con from 0.000230292 to 0.000230295
Heightened Def Con from 0.000230381 to 0.000230383
Heightened Def Con from 0.000230879 to 0.000230883
Heightened Def Con from 0.000230888 to 0.000230892
Heightened Def Con from 0.000230892 to 0.000230893
Heightened Def Con from 0.000230893 to 0.000230894
Heightened Def Con from 0.000230895 to 0.0002309
Heightened Def Con from 0.00023213 to 0.000232141
Heightened Def Con from 0.000232287 to 0.000232287
Heightened Def Con from 0.000232287 to 0.000232288
Heightened Def Con from 0.000232807 to 0.000232807
Heightened Def Con from 0.000232807 to 0.000232807
Heightened Def Con from 0.000232807 to 0.000232807
Heightened Def Con from 0.000232807 to 0.000232807
Heightened Def Con from 0.000232807 to 0.000232808
Heightened Def Con from 0.000234437 +++++++++++++++++++++++++++++++++to 0.000234438
Heightened Def Con from 0.000234438 to 0.000234452
Heightened Def Con from 0.000234743 to 0.000234745
Heightened Def Con from 0.000235262 to 0.000235263
Heightened Def Con from 0.000235263 to 0.000235264
Heightened Def Con from 0.000235428 to 0.000235432
Heightened Def Con from 0.000235448 to 0.000235454
Heightened Def Con from 0.000236394 to 0.000236405
Heightened Def Con from 0.000236438 to 0.000236444
Heightened Def Con from 0.000236452 to 0.000236456
Heightened Def Con from 0.000236549 to 0.000236552
Heightened Def Con from 0.000236554 to 0.000236554
Heightened Def Con from 0.000236555 to 0.000236556
Heightened Def Con from 0.000236704 to 0.000236712
Heightened Def Con from 0.000237066 to 0.000237067
Heightened Def Con from 0.000238807 to 0.000238811
Heightened Def Con from 0.000238871 to 0.000238876
Heightened Def Con from 0.000239024 to 0.000239024
Heightened Def Con from 0.000239026 to 0.000239026
Heightened Def Con from 0.000239536 to 0.000239538
Heightened Def Con from 0.000239542 to 0.000239543
Heightened Def Con from 0.000239543 to 0.000239543
Heightened Def Con from 0.000240966 to 0.000240977
Heightened Def Con from 0.000241123 to 0.000241124
Heightened Def Con from 0.000241643 to 0.000241643
Heightened Def Con from 0.000241643 to 0.000241643
Heightened Def Con from 0.000241643 to 0.000241643
Heightened Def Con from 0.000241643 to 0.000241643
Heightened Def Con from 0.000241644 to 0.000241644
Heightened Def Con from 0.000241644 to 0.000241644
Heightened Def Con from 0.000241644 to 0.000241644
Heightened Def Con from 0.000241644 to 0.000241644
Heightened Def Con from 0.000241644 to 0.000241644
Heightened Def Con from 0.000243231 +++++++++++++++++++++++++++++++++to 0.000243232
Heightened Def Con from 0.000243232 to 0.000243232
Heightened Def Con from 0.000243381 to 0.000243383
Heightened Def Con from 0.000244133 to 0.000244133
Heightened Def Con from 0.000244133 to 0.000244134
Heightened Def Con from 0.000244231 to 0.000244239
Heightened Def Con from 0.000245087 to 0.000245098
Heightened Def Con from 0.000245239 to 0.000245242
Heightened Def Con from 0.000245243 to 0.000245243
Heightened Def Con from 0.000245245 to 0.000245245
Heightened Def Con from 0.000245248 to 0.000245252
Heightened Def Con from 0.000245759 to 0.000245761
Heightened Def Con from 0.000245763 to 0.000245763
Heightened Def Con from 0.000245763 to 0.000245763
Heightened Def Con from 0.000245763 to 0.000245763
Heightened Def Con from 0.000245763 to 0.000245763
Heightened Def Con from 0.000245763 to 0.000245764
Heightened Def Con from 0.000247454 +++++++++++++++++++++++++++++++++to 0.000247455
Heightened Def Con from 0.000247455 to 0.000247469
Heightened Def Con from 0.000247615 to 0.000247618
Heightened Def Con from 0.000247773 to 0.000247775
Heightened Def Con from 0.000248289 to 0.00024829
Heightened Def Con from 0.00024829 to 0.000248291
Heightened Def Con from 0.000248454 to 0.000248458
Heightened Def Con from 0.000248468 to 0.000248472
Heightened Def Con from 0.000249437 to 0.00024944
Heightened Def Con from 0.000249447 to 0.000249458
Heightened Def Con from 0.000249601 to 0.000249602
Heightened Def Con from 0.000249602 to 0.000249602
Heightened Def Con from 0.000249602 to 0.000249603
Heightened Def Con from 0.000249604 to 0.000249604
Heightened Def Con from 0.000249604 to 0.000249605
Heightened Def Con from 0.000249759 to 0.000249763

Date: Thu Nov 21 17:02:05 2024
Total elapsed time: 115.266 seconds.

tnom = 27
temp = 27
method = modified trap
totiter = 921774
traniter = 903533
tranpoints = 177715
accept = 114502
rejected = 65830
matrix size = 853
fillins = 715
solver = Normal
Avg thread counts: 1.0/1.0/1.0/1.0
Matrix Compiler1: 54.30 KB object code size  14.4/11.1/[4.7]
Matrix Compiler2: 69.70 KB object code size  19.5/21.8/[11.0]

