Circuit: * C:\Users\---\Desktop\DCE\dce-g5-proyecto_integrador\Checkpoint 5\Buck_lazo_cerrado\Buck-lazo-cerrado.asc

WARNING: Less than two connections to node -VCC3.  This node is used by V10.
Instance "m:u7:_gd_template:_lo_stage:_lo_nmos": Length shorter than recommended for a level 1 MOSFET.
Instance "m:u7:_gd_template:_lo_stage:_lo_pmos": Length shorter than recommended for a level 1 MOSFET.
Instance "m:u7:_gd_template:_ho_stage:_ho_nmos": Length shorter than recommended for a level 1 MOSFET.
Instance "m:u7:_gd_template:_ho_stage:_ho_pmos": Length shorter than recommended for a level 1 MOSFET.
Direct Newton iteration for .op point skipped.
Starting Gmin stepping
Gmin = 10
vernier = 0.5
vernier = 0.25
vernier = 0.125
Gmin = 5.49741
vernier = 0.0625
vernier = 0.03125
vernier = 0.015625
vernier = 0.0078125
Gmin = 5.43357
vernier = 0.00390625
vernier = 0.00195313
vernier = 0.000976563
vernier = 0.000488281
Gmin = 5.42761
Gmin = 0
Gmin stepping failed

Starting source stepping with srcstepmethod=0
Source Step = 3.0303%
Source Step = 33.3333%
Source Step = 50.1894%
vernier = 0.015625
Source Step = 50.0237%
Starting source stepping with srcstepmethod=1
Source Step = 3.0303%
Source Step = 33.3333%
Source Step = 50.1894%
vernier = 0.015625
Source stepping failed

Pseudo Transient failed in finding the operating point at 5.00977 µs.
Trouble finding operating point....skipping operating point for Transient analysis.
Changing Tseed to 2.44141e-010
Changing Tseed to 2.44141e-012
Changing Tseed to 2.44141e-009
Changing Tseed to 2.44141e-013
Changing Tseed to 2.44141e-008
Changing Tseed to 2.44141e-014
to 2.74658e-014
Heightened Def Con from 3.40467e-011 to 2.28405e-009
Heightened Def Con from 1.38299e-008 to 1.68299e-008
Heightened Def Con from 1.77157e-008 to 2.07157e-008
Heightened Def Con from 1.27252e-007 to 1.30252e-007
Heightened Def Con from 6.65706e-007 to 6.67706e-007
Heightened Def Con from 6.74631e-007 to 6.74631e-007
Heightened Def Con from 6.74635e-007 to 6.74637e-007
Heightened Def Con from 6.74644e-007 to 6.7465e-007
Heightened Def Con from 6.74708e-007 to 6.7471e-007
Heightened Def Con from 6.7471e-007 to 6.7471e-007
Heightened Def Con from 6.74711e-007 to 6.74713e-007
Heightened Def Con from 6.74713e-007 to 6.74714e-007
Heightened Def Con from 6.74714e-007 to 6.74714e-007
Heightened Def Con from 6.74714e-007 to 6.74716e-007
Heightened Def Con from 6.74718e-007 to 6.75593e-007
Heightened Def Con from 1.14763e-006 to 1.15163e-006
Heightened Def Con from 3.271e-006 to 3.274e-006
Heightened Def Con from 3.95142e-006 to 3.95147e-006
Heightened Def Con from 3.95148e-006 to 3.95948e-006
Heightened Def Con from 3.9776e-006 to 3.9776e-006
Heightened Def Con from 3.97764e-006 to 3.97764e-006
Heightened Def Con from 3.97772e-006 to 3.97772e-006
Heightened Def Con from 3.97772e-006 to 3.97772e-006
Heightened Def Con from 3.97805e-006 to 3.97805e-006
Heightened Def Con from 3.97805e-006 to 3.97842e-006
Heightened Def Con from 3.9816e-006 to 3.9886e-006
Heightened Def Con from 4.0083e-006 to 4.00844e-006
Heightened Def Con from 4.00847e-006 to 4.00849e-006
Heightened Def Con from 4.00849e-006 to 4.01037e-006
Heightened Def Con from 4.01037e-006 to 4.01337e-006
Heightened Def Con from 4.10231e-006 to 4.10331e-006
Heightened Def Con from 4.10331e-006 to 4.10331e-006
Heightened Def Con from 4.10332e-006 to 4.10332e-006
Heightened Def Con from 4.10333e-006 to 4.10334e-006
Heightened Def Con from 4.10334e-006 to 4.10334e-006
Heightened Def Con from 4.10334e-006 to 4.10334e-006
Heightened Def Con from 4.10334e-006 to 4.10334e-006
Heightened Def Con from 4.10335e-006 to 4.10335e-006
Heightened Def Con from 4.10335e-006 to 4.10335e-006
Heightened Def Con from 4.10336e-006 to 4.10336e-006
Heightened Def Con from 4.10336e-006 to 4.10336e-006
Heightened Def Con from 4.10337e-006 to 4.10337e-006
Heightened Def Con from 4.10337e-006 to 4.10337e-006
Heightened Def Con from 4.10337e-006 to 4.10337e-006
Heightened Def Con from 4.10343e-006 to 4.10343e-006
Heightened Def Con from 4.10343e-006 to 4.10343e-006
Heightened Def Con from 4.10343e-006 to 4.10343e-006
Heightened Def Con from 4.10344e-006 to 4.10544e-006
Heightened Def Con from 4.26439e-006 to 4.26739e-006
Heightened Def Con from 4.65612e-006 to 4.66524e-006
Heightened Def Con from 4.66551e-006 to 4.66677e-006
Heightened Def Con from 4.66678e-006 to 4.66765e-006
Heightened Def Con from 4.67003e-006 to 4.67003e-006
Heightened Def Con from 4.67003e-006 to 4.67003e-006
Heightened Def Con from 4.72365e-006 to 4.72865e-006
Heightened Def Con from 4.80195e-006 to 4.8022e-006
Heightened Def Con from 4.80242e-006 to 4.80355e-006
Heightened Def Con from 4.80355e-006 to 4.80418e-006
Heightened Def Con from 4.80474e-006 to 4.81374e-006
Heightened Def Con from 5.06011e-006 to 5.06311e-006
Heightened Def Con from 5.31976e-006 to 5.32276e-006
Heightened Def Con from 5.32483e-006 to 5.32783e-006
Heightened Def Con from 5.32783e-006 to 5.32784e-006
Heightened Def Con from 5.32789e-006 to 5.3279e-006
Heightened Def Con from 5.3279e-006 to 5.3279e-006
Heightened Def Con from 5.3279e-006 to 5.3279e-006
Heightened Def Con from 5.3279e-006 to 5.3279e-006
Heightened Def Con from 5.32791e-006 to 5.32791e-006
Heightened Def Con from 5.32791e-006 to 5.32791e-006
Heightened Def Con from 5.32792e-006 to 5.32792e-006
Heightened Def Con from 5.32792e-006 to 5.32792e-006
Heightened Def Con from 5.32792e-006 to 5.32792e-006
Heightened Def Con from 5.32793e-006 to 5.32793e-006
Heightened Def Con from 5.32793e-006 to 5.32793e-006
Heightened Def Con from 5.32793e-006 to 5.32793e-006
Heightened Def Con from 5.32796e-006 to 5.32796e-006
Heightened Def Con from 5.32796e-006 to 5.32797e-006
Heightened Def Con from 5.32797e-006 to 5.32797e-006
Heightened Def Con from 5.32797e-006 to 5.32797e-006
Heightened Def Con from 5.32798e-006 to 5.32885e-006
Heightened Def Con from 5.62286e-006 to 5.62686e-006
Heightened Def Con from 5.62706e-006 to 5.63106e-006
Heightened Def Con from 5.63457e-006 to 5.63957e-006
Heightened Def Con from 5.65489e-006 to 5.65889e-006
Heightened Def Con from 5.66417e-006 to 5.66817e-006
Heightened Def Con from 7.78248e-006 to 7.78848e-006
Heightened Def Con from 8.24024e-006 to 8.2403e-006
Heightened Def Con from 8.24032e-006 to 8.24232e-006
Heightened Def Con from 8.26411e-006 to 8.26412e-006
Heightened Def Con from 8.26412e-006 to 8.26412e-006
Heightened Def Con from 8.26412e-006 to 8.26412e-006
Heightened Def Con from 8.26412e-006 to 8.26412e-006
Heightened Def Con from 8.26412e-006 to 8.26413e-006
Heightened Def Con from 8.26416e-006 to 8.26416e-006
Heightened Def Con from 8.26417e-006 to 8.26417e-006
Heightened Def Con from 8.26417e-006 to 8.26417e-006
Heightened Def Con from 8.26417e-006 to 8.26417e-006
Heightened Def Con from 8.26417e-006 to 8.26417e-006
Heightened Def Con from 8.26419e-006 to 8.26419e-006
Heightened Def Con from 8.2642e-006 to 8.2642e-006
Heightened Def Con from 8.26422e-006 to 8.26422e-006
Heightened Def Con from 8.26422e-006 to 8.26422e-006
Heightened Def Con from 8.2665e-006 to 8.2765e-006
Heightened Def Con from 8.28194e-006 to 8.28195e-006
Heightened Def Con from 8.29312e-006 to 8.29312e-006
Heightened Def Con from 8.29316e-006 to 8.29329e-006
Heightened Def Con from 8.29329e-006 to 8.29331e-006
Heightened Def Con from 8.29331e-006 to 8.29506e-006
Heightened Def Con from 8.29506e-006 to 8.29806e-006
Heightened Def Con from 8.37834e-006 to 8.38234e-006
Heightened Def Con from 8.38435e-006 to 8.38435e-006
Heightened Def Con from 8.38435e-006 to 8.38435e-006
Heightened Def Con from 8.38435e-006 to 8.38435e-006
Heightened Def Con from 8.38435e-006 to 8.38435e-006
Heightened Def Con from 8.38435e-006 to 8.38435e-006
Heightened Def Con from 8.38435e-006 to 8.38435e-006
Heightened Def Con from 8.38435e-006 to 8.38436e-006
Heightened Def Con from 8.38436e-006 to 8.38436e-006
Heightened Def Con from 8.38436e-006 to 8.38436e-006
Heightened Def Con from 8.38436e-006 to 8.38436e-006
Heightened Def Con from 8.38436e-006 to 8.38436e-006
Heightened Def Con from 8.38437e-006 to 8.38437e-006
Heightened Def Con from 8.38437e-006 to 8.38437e-006
Heightened Def Con from 8.38437e-006 to 8.38437e-006
Heightened Def Con from 8.38437e-006 to 8.38437e-006
Heightened Def Con from 8.38437e-006 to 8.38437e-006
Heightened Def Con from 8.38437e-006 +to 8.38437e-006
Heightened Def Con from 8.38437e-006 to 8.38437e-006
Heightened Def Con from 8.38437e-006 to 8.38437e-006
Heightened Def Con from 8.38437e-006 to 8.38437e-006
Heightened Def Con from 8.38437e-006 to 8.38437e-006
Heightened Def Con from 8.38437e-006 to 8.38437e-006
Heightened Def Con from 8.38437e-006 to 8.38437e-006
Heightened Def Con from 8.38438e-006 to 8.38438e-006
Heightened Def Con from 8.38438e-006 to 8.38438e-006
Heightened Def Con from 8.38438e-006 to 8.38438e-006
Heightened Def Con from 8.38438e-006 to 8.38438e-006
Heightened Def Con from 8.38438e-006 to 8.38438e-006
Heightened Def Con from 8.38438e-006 to 8.38438e-006
Heightened Def Con from 8.38438e-006 to 8.38438e-006
Heightened Def Con from 8.38438e-006 to 8.38438e-006
Heightened Def Con from 8.38438e-006 to 8.38438e-006
Heightened Def Con from 8.38438e-006 to 8.38438e-006
Heightened Def Con from 8.38438e-006 to 8.38438e-006
Heightened Def Con from 8.38438e-006 to 8.38438e-006
Heightened Def Con from 8.38438e-006 to 8.38439e-006
Heightened Def Con from 8.38442e-006 to 8.38442e-006
Heightened Def Con from 8.38442e-006 to 8.38442e-006
Heightened Def Con from 8.38442e-006 to 8.38442e-006
Heightened Def Con from 8.38442e-006 to 8.38442e-006
Heightened Def Con from 8.38442e-006 to 8.38442e-006
Heightened Def Con from 8.38442e-006 to 8.38442e-006
Heightened Def Con from 8.38442e-006 to 8.38442e-006
Heightened Def Con from 8.38442e-006 to 8.38442e-006
Heightened Def Con from 8.38449e-006 to 8.38449e-006
Heightened Def Con from 8.38449e-006 to 8.38449e-006
Heightened Def Con from 8.38449e-006 to 8.38449e-006
Heightened Def Con from 8.38449e-006 to 8.38449e-006
Heightened Def Con from 8.38449e-006 to 8.38449e-006
Heightened Def Con from 8.38449e-006 to 8.38449e-006
Heightened Def Con from 8.38449e-006 to 8.38449e-006
Heightened Def Con from 8.38449e-006 to 8.38449e-006
Heightened Def Con from 8.3845e-006 to 8.38462e-006
Heightened Def Con from 8.38462e-006 to 8.39262e-006
Heightened Def Con from 8.94656e-006 to 8.94856e-006
Heightened Def Con from 8.94886e-006 to 8.94999e-006
Heightened Def Con from 8.95004e-006 to 8.95092e-006
Heightened Def Con from 8.95388e-006 to 8.95788e-006
Heightened Def Con from 9.50752e-006 to 9.51864e-006
Heightened Def Con from 9.5189e-006 to 9.5219e-006
Heightened Def Con from 9.66538e-006 to 9.66838e-006
Heightened Def Con from 9.67016e-006 to 9.67018e-006
Heightened Def Con from 9.6702e-006 to 9.6702e-006
Heightened Def Con from 9.6702e-006 to 9.67022e-006
Heightened Def Con from 9.67023e-006 to 9.67024e-006
Heightened Def Con from 9.67041e-006 to 9.67045e-006
Heightened Def Con from 9.67071e-006 to 9.67075e-006
Heightened Def Con from 9.67088e-006 to 9.67092e-006
Heightened Def Con from 9.67096e-006 to 9.67096e-006
Heightened Def Con from 9.67096e-006 to 9.67101e-006
Heightened Def Con from 9.67104e-006 to 9.67108e-006
Heightened Def Con from 9.67108e-006 to 9.67108e-006
Heightened Def Con from 9.67108e-006 to 9.67108e-006
Heightened Def Con from 9.67109e-006 to 9.67109e-006
Heightened Def Con from 9.67109e-006 to 9.67113e-006
Heightened Def Con from 9.67113e-006 to 9.67117e-006
Heightened Def Con from 9.67119e-006 to 9.67123e-006
Heightened Def Con from 9.67135e-006 to 9.6714e-006
Heightened Def Con from 9.67144e-006 to 9.67147e-006
Heightened Def Con from 9.67185e-006 to 9.67247e-006
Heightened Def Con from 9.67449e-006 to 9.67949e-006
Heightened Def Con from 1.01688e-005 to 1.01748e-005
Heightened Def Con from 1.01809e-005 to 1.01809e-005
Heightened Def Con from 1.01809e-005 to 1.01809e-005
Heightened Def Con from 1.01809e-005 to 1.01809e-005
Heightened Def Con from 1.01809e-005 to 1.01809e-005
Heightened Def Con from 1.01809e-005 to 1.01809e-005
Heightened Def Con from 1.01809e-005 to 1.01809e-005
Heightened Def Con from 1.01809e-005 to 1.01809e-005
Heightened Def Con from 1.01809e-005 to 1.01809e-005
Heightened Def Con from 1.01809e-005 to 1.01809e-005
Heightened Def Con from 1.01809e-005 to 1.01809e-005
Heightened Def Con from 1.01809e-005 to 1.01809e-005
Heightened Def Con from 1.01809e-005 to 1.01809e-005
Heightened Def Con from 1.01809e-005 to 1.01809e-005
Heightened Def Con from 1.01809e-005 to 1.01809e-005
Heightened Def Con from 1.01809e-005 to 1.01809e-005
Heightened Def Con from 1.01809e-005 to 1.01809e-005
Heightened Def Con from 1.01809e-005 to 1.01809e-005
Heightened Def Con from 1.01809e-005 to 1.01809e-005
Heightened Def Con from 1.01809e-005 to 1.01809e-005
Heightened Def Con from 1.01809e-005 to 1.01809e-005
Heightened Def Con from 1.01809e-005 to 1.01809e-005
Heightened Def Con from 1.01809e-005 to 1.0181e-005
Heightened Def Con from 1.0181e-005 to 1.0181e-005
Heightened Def Con from 1.0181e-005 to 1.0181e-005
Heightened Def Con from 1.0181e-005 to 1.0181e-005
Heightened Def Con from 1.0181e-005 to 1.0181e-005
Heightened Def Con from 1.0181e-005 to 1.0181e-005
Heightened Def Con from 1.0181e-005 to 1.0181e-005
Heightened Def Con from 1.0181e-005 to 1.0181e-005
Heightened Def Con from 1.0181e-005 to 1.0181e-005
Heightened Def Con from 1.0181e-005 to 1.0181e-005
Heightened Def Con from 1.0181e-005 to 1.0181e-005
Heightened Def Con from 1.0181e-005 to 1.0181e-005
Heightened Def Con from 1.0181e-005 to 1.0181e-005
Heightened Def Con from 1.0181e-005 to 1.0181e-005
Heightened Def Con from 1.0181e-005 to 1.0181e-005
Heightened Def Con from 1.0181e-005 to 1.0181e-005
Heightened Def Con from 1.0181e-005 to 1.0181e-005
Heightened Def Con from 1.0181e-005 to 1.0181e-005
Heightened Def Con from 1.0181e-005 to 1.0181e-005
Heightened Def Con from 1.0181e-005 to 1.0181e-005
Heightened Def Con from 1.0181e-005 to 1.0181e-005
Heightened Def Con from 1.0181e-005 to 1.0181e-005
Heightened Def Con from 1.0181e-005 to 1.0181e-005
Heightened Def Con from 1.0181e-005 to 1.0181e-005
Heightened Def Con from 1.0181e-005 to 1.0181e-005
Heightened Def Con from 1.0181e-005 to 1.0181e-005
Heightened Def Con from 1.0181e-005 to 1.0181e-005
Heightened Def Con from 1.0181e-005 to 1.0181e-005
Heightened Def Con from 1.0181e-005 to 1.0181e-005
Heightened Def Con from 1.0181e-005 to 1.0181e-005
Heightened Def Con from 1.0181e-005 to 1.0181e-005
Heightened Def Con from 1.0181e-005 to 1.0181e-005
Heightened Def Con from 1.0181e-005 to 1.0181e-005
Heightened Def Con from 1.0181e-005 to 1.0181e-005
Heightened Def Con from 1.0181e-005 to 1.0181e-005
Heightened Def Con from 1.0181e-005 to 1.0181e-005
Heightened Def Con from 1.0181e-005 to 1.0181e-005
Heightened Def Con from 1.0181e-005 to 1.0181e-005
Heightened Def Con from 1.0181e-005 to 1.0181e-005
Heightened Def Con from 1.0181e-005 to 1.0181e-005
Heightened Def Con from 1.0181e-005 to 1.0181e-005
Heightened Def Con from 1.0181e-005 to 1.0181e-005
Heightened Def Con from 1.0181e-005 to 1.0181e-005
Heightened Def Con from 1.0181e-005 to 1.0181e-005
Heightened Def Con from 1.0181e-005 to 1.0181e-005
Heightened Def Con from 1.0181e-005 to 1.0181e-005
Heightened Def Con from 1.0181e-005 to 1.0181e-005
Heightened Def Con from 1.0181e-005 to 1.0181e-005
Heightened Def Con from 1.0181e-005 to 1.0181e-005
Heightened Def Con from 1.0181e-005 to 1.0181e-005
Heightened Def Con from 1.0181e-005 to 1.0181e-005
Heightened Def Con from 1.0181e-005 to 1.0181e-005
Heightened Def Con from 1.0181e-005 to 1.0181e-005
Heightened Def Con from 1.0181e-005 to 1.0181e-005
Heightened Def Con from 1.0181e-005 to 1.0181e-005
Heightened Def Con from 1.01811e-005 to 1.01811e-005
Heightened Def Con from 1.01811e-005 to 1.01811e-005
Heightened Def Con from 1.01811e-005 to 1.01811e-005
Heightened Def Con from 1.01811e-005 to 1.01811e-005
Heightened Def Con from 1.01811e-005 to 1.01811e-005
Heightened Def Con from 1.01811e-005 to 1.01811e-005
Heightened Def Con from 1.01811e-005 to 1.01811e-005
Heightened Def Con from 1.01811e-005 to 1.01811e-005
Heightened Def Con from 1.01811e-005 to 1.01811e-005
Heightened Def Con from 1.01811e-005 to 1.01811e-005
Heightened Def Con from 1.01811e-005 to 1.01811e-005
Heightened Def Con from 1.01811e-005 to 1.01811e-005
Heightened Def Con from 1.01811e-005 to 1.01811e-005
Heightened Def Con from 1.01811e-005 to 1.01811e-005
Heightened Def Con from 1.01811e-005 to 1.01811e-005
Heightened Def Con from 1.01811e-005 to 1.01811e-005
Heightened Def Con from 1.01811e-005 to 1.01811e-005
Heightened Def Con from 1.01811e-005 to 1.01811e-005
Heightened Def Con from 1.01811e-005 to 1.01811e-005
Heightened Def Con from 1.01811e-005 to 1.01811e-005
Heightened Def Con from 1.01811e-005 to 1.01811e-005
Heightened Def Con from 1.01811e-005 to 1.01811e-005
Heightened Def Con from 1.01811e-005 to 1.01811e-005
Heightened Def Con from 1.01811e-005 to 1.01811e-005
Heightened Def Con from 1.01811e-005 to 1.01811e-005
Heightened Def Con from 1.01811e-005 to 1.01811e-005
Heightened Def Con from 1.01811e-005 to 1.01811e-005
Heightened Def Con from 1.01811e-005 to 1.01811e-005
Heightened Def Con from 1.01811e-005 to 1.01811e-005
Heightened Def Con from 1.01811e-005 to 1.01811e-005
Heightened Def Con from 1.01811e-005 to 1.01811e-005
Heightened Def Con from 1.01811e-005 to 1.01811e-005
Heightened Def Con from 1.01811e-005 to 1.01811e-005
Heightened Def Con from 1.01811e-005 to 1.01811e-005
Heightened Def Con from 1.01811e-005 to 1.01811e-005
Heightened Def Con from 1.01811e-005 to 1.01811e-005
Heightened Def Con from 1.01811e-005 to 1.01811e-005
Heightened Def Con from 1.01811e-005 to 1.01811e-005
Heightened Def Con from 1.01811e-005 to 1.01811e-005
Heightened Def Con from 1.01811e-005 to 1.01811e-005
Heightened Def Con from 1.01811e-005 to 1.01811e-005
Heightened Def Con from 1.01811e-005 to 1.01811e-005
Heightened Def Con from 1.01811e-005 to 1.01811e-005
Heightened Def Con from 1.01811e-005 to 1.01811e-005
Heightened Def Con from 1.01811e-005 to 1.01811e-005
Heightened Def Con from 1.01811e-005 to 1.01811e-005
Heightened Def Con from 1.01811e-005 to 1.01811e-005
Heightened Def Con from 1.01811e-005 to 1.01811e-005
Heightened Def Con from 1.01811e-005 to 1.01811e-005
Heightened Def Con from 1.01811e-005 to 1.01811e-005
Heightened Def Con from 1.01812e-005 to 1.01812e-005
Heightened Def Con from 1.01812e-005 to 1.01812e-005
Heightened Def Con from 1.01812e-005 to 1.01812e-005
Heightened Def Con from 1.01812e-005 to 1.01812e-005
Heightened Def Con from 1.01812e-005 to 1.01812e-005
Heightened Def Con from 1.01812e-005 to 1.01812e-005
Heightened Def Con from 1.01812e-005 to 1.01812e-005
Heightened Def Con from 1.01812e-005 to 1.01812e-005
Heightened Def Con from 1.01812e-005 to 1.01812e-005
Heightened Def Con from 1.01812e-005 to 1.01812e-005
Heightened Def Con from 1.01812e-005 to 1.01812e-005
Heightened Def Con from 1.01812e-005 to 1.01812e-005
Heightened Def Con from 1.01812e-005 to 1.01812e-005
Heightened Def Con from 1.01812e-005 to 1.01812e-005
Heightened Def Con from 1.01812e-005 to 1.01812e-005
Heightened Def Con from 1.01812e-005 to 1.01812e-005
Heightened Def Con from 1.01812e-005 to 1.01812e-005
Heightened Def Con from 1.01812e-005 to 1.01812e-005
Heightened Def Con from 1.01812e-005 to 1.01812e-005
Heightened Def Con from 1.01812e-005 to 1.01812e-005
Heightened Def Con from 1.01812e-005 to 1.01812e-005
Heightened Def Con from 1.01812e-005 to 1.01812e-005
Heightened Def Con from 1.01812e-005 to 1.01812e-005
Heightened Def Con from 1.01812e-005 to 1.01812e-005
Heightened Def Con from 1.01812e-005 to 1.01812e-005
Heightened Def Con from 1.01812e-005 to 1.01812e-005
Heightened Def Con from 1.01812e-005 to 1.01812e-005
Heightened Def Con from 1.01812e-005 to 1.01812e-005
Heightened Def Con from 1.01812e-005 to 1.01812e-005
Heightened Def Con from 1.01812e-005 to 1.01812e-005
Heightened Def Con from 1.01812e-005 to 1.01812e-005
Heightened Def Con from 1.01812e-005 to 1.01812e-005
Heightened Def Con from 1.01812e-005 to 1.01812e-005
Heightened Def Con from 1.01812e-005 to 1.01812e-005
Heightened Def Con from 1.01812e-005 to 1.01812e-005
Heightened Def Con from 1.01812e-005 to 1.01812e-005
Heightened Def Con from 1.01812e-005 to 1.01812e-005
Heightened Def Con from 1.01812e-005 to 1.01812e-005
Heightened Def Con from 1.01812e-005 to 1.01812e-005
Heightened Def Con from 1.01812e-005 to 1.01812e-005
Heightened Def Con from 1.01812e-005 to 1.01812e-005
Heightened Def Con from 1.01812e-005 to 1.01812e-005
Heightened Def Con from 1.01812e-005 to 1.01812e-005
Heightened Def Con from 1.01812e-005 to 1.01812e-005
Heightened Def Con from 1.01812e-005 to 1.01812e-005
Heightened Def Con from 1.01812e-005 to 1.01812e-005
Heightened Def Con from 1.01812e-005 to 1.01812e-005
Heightened Def Con from 1.01812e-005 to 1.01812e-005
Heightened Def Con from 1.01812e-005 to 1.01812e-005
Heightened Def Con from 1.01812e-005 to 1.01813e-005
Heightened Def Con from 1.01813e-005 to 1.01813e-005
Heightened Def Con from 1.01813e-005 to 1.01813e-005
Heightened Def Con from 1.01813e-005 to 1.01813e-005
Heightened Def Con from 1.01813e-005 to 1.01813e-005
Heightened Def Con from 1.01813e-005 to 1.01813e-005
Heightened Def Con from 1.01813e-005 to 1.01813e-005
Heightened Def Con from 1.01813e-005 to 1.01813e-005
Heightened Def Con from 1.01813e-005 to 1.01813e-005
Heightened Def Con from 1.01813e-005 to 1.01813e-005
Heightened Def Con from 1.01813e-005 to 1.01813e-005
Heightened Def Con from 1.01813e-005 to 1.01813e-005
Heightened Def Con from 1.01813e-005 to 1.01813e-005
Heightened Def Con from 1.01813e-005 to 1.01813e-005
Heightened Def Con from 1.01813e-005 to 1.01813e-005
Heightened Def Con from 1.01813e-005 to 1.01813e-005
Heightened Def Con from 1.01813e-005 to 1.01813e-005
Heightened Def Con from 1.01813e-005 to 1.01813e-005
Heightened Def Con from 1.01813e-005 to 1.01813e-005
Heightened Def Con from 1.01813e-005 to 1.01813e-005
Heightened Def Con from 1.01813e-005 to 1.01813e-005
Heightened Def Con from 1.01813e-005 to 1.01813e-005
Heightened Def Con from 1.01813e-005 to 1.01813e-005
Heightened Def Con from 1.01813e-005 to 1.01813e-005
Heightened Def Con from 1.01813e-005 to 1.01813e-005
Heightened Def Con from 1.01813e-005 to 1.01813e-005
Heightened Def Con from 1.01813e-005 to 1.01813e-005
Heightened Def Con from 1.01813e-005 to 1.01813e-005
Heightened Def Con from 1.01813e-005 to 1.01813e-005
Heightened Def Con from 1.01813e-005 to 1.01813e-005
Heightened Def Con from 1.01813e-005 to 1.01813e-005
Heightened Def Con from 1.01813e-005 to 1.01813e-005
Heightened Def Con from 1.01813e-005 to 1.01813e-005
Heightened Def Con from 1.01813e-005 to 1.01813e-005
Heightened Def Con from 1.01813e-005 to 1.01813e-005
Heightened Def Con from 1.01813e-005 to 1.01813e-005
Heightened Def Con from 1.01813e-005 to 1.01813e-005
Heightened Def Con from 1.01813e-005 to 1.01813e-005
Heightened Def Con from 1.01814e-005 to 1.01814e-005
Heightened Def Con from 1.01814e-005 to 1.01814e-005
Heightened Def Con from 1.01814e-005 to 1.01814e-005
Heightened Def Con from 1.01814e-005 to 1.01814e-005
Heightened Def Con from 1.01814e-005 to 1.01814e-005
Heightened Def Con from 1.01814e-005 to 1.01814e-005
Heightened Def Con from 1.01814e-005 to 1.01814e-005
Heightened Def Con from 1.01814e-005 to 1.01814e-005
Heightened Def Con from 1.01814e-005 to 1.01814e-005
Heightened Def Con from 1.01814e-005 to 1.01814e-005
Heightened Def Con from 1.01814e-005 to 1.01814e-005
Heightened Def Con from 1.01814e-005 to 1.01814e-005
Heightened Def Con from 1.01814e-005 to 1.01814e-005
Heightened Def Con from 1.01815e-005 to 1.01815e-005
Heightened Def Con from 1.01815e-005 to 1.01815e-005
Heightened Def Con from 1.01815e-005 to 1.01815e-005
Heightened Def Con from 1.01815e-005 to 1.01815e-005
Heightened Def Con from 1.01815e-005 to 1.01815e-005
Heightened Def Con from 1.01815e-005 to 1.01815e-005
Heightened Def Con from 1.01816e-005 to 1.01816e-005
Heightened Def Con from 1.01816e-005 to 1.01816e-005
Heightened Def Con from 1.01816e-005 to 1.01816e-005
Heightened Def Con from 1.01816e-005 to 1.01816e-005
Heightened Def Con from 1.01816e-005 to 1.01816e-005
Heightened Def Con from 1.01816e-005 to 1.01817e-005
Heightened Def Con from 1.01817e-005 to 1.01817e-005
Heightened Def Con from 1.01817e-005 to 1.01817e-005
Heightened Def Con from 1.01817e-005 to 1.01817e-005
Heightened Def Con from 1.01817e-005 to 1.01817e-005
Heightened Def Con from 1.01817e-005 to 1.01817e-005
Heightened Def Con from 1.01817e-005 to 1.01817e-005
Heightened Def Con from 1.01817e-005 to 1.01817e-005
Heightened Def Con from 1.01817e-005 to 1.01817e-005
Heightened Def Con from 1.01817e-005 to 1.01817e-005
Heightened Def Con from 1.01817e-005 to 1.01817e-005
Heightened Def Con from 1.01817e-005 to 1.01817e-005
Heightened Def Con from 1.01817e-005 to 1.01817e-005
Heightened Def Con from 1.01817e-005 to 1.01817e-005
Heightened Def Con from 1.01817e-005 to 1.01817e-005
Heightened Def Con from 1.01817e-005 to 1.01817e-005
Heightened Def Con from 1.01817e-005 to 1.01817e-005
Heightened Def Con from 1.01817e-005 to 1.01817e-005
Heightened Def Con from 1.01817e-005 to 1.01817e-005
Heightened Def Con from 1.01817e-005 to 1.01817e-005
Heightened Def Con from 1.01817e-005 to 1.01817e-005
Heightened Def Con from 1.01817e-005 to 1.01817e-005
Heightened Def Con from 1.01817e-005 to 1.01817e-005
Heightened Def Con from 1.01817e-005 to 1.01817e-005
Heightened Def Con from 1.01817e-005 to 1.01817e-005
Heightened Def Con from 1.01817e-005 to 1.01826e-005
Heightened Def Con from 1.02298e-005 to 1.02348e-005
Heightened Def Con from 1.23225e-005 to 1.23255e-005
Heightened Def Con from 1.25063e-005 to 1.25064e-005
Heightened Def Con from 1.25064e-005 to 1.25081e-005
Heightened Def Con from 1.25154e-005 to 1.25164e-005
Heightened Def Con from 1.25164e-005 to 1.25164e-005
Heightened Def Con from 1.25164e-005 to 1.25164e-005
Heightened Def Con from 1.25164e-005 to 1.25164e-005
Heightened Def Con from 1.25164e-005 to 1.25164e-005
Heightened Def Con from 1.25164e-005 to 1.25164e-005
Heightened Def Con from 1.25164e-005 to 1.25164e-005
Heightened Def Con from 1.25164e-005 to 1.25164e-005
Heightened Def Con from 1.25164e-005 to 1.25164e-005
Heightened Def Con from 1.25164e-005 to 1.25164e-005
Heightened Def Con from 1.25164e-005 to 1.25164e-005
Heightened Def Con from 1.25164e-005 to 1.25164e-005
Heightened Def Con from 1.25164e-005 to 1.25164e-005
Heightened Def Con from 1.25164e-005 to 1.25164e-005
Heightened Def Con from 1.25164e-005 to 1.25164e-005
Heightened Def Con from 1.25165e-005 to 1.25165e-005
Heightened Def Con from 1.25177e-005 to 1.25287e-005
Heightened Def Con from 1.253e-005 +to 1.2532e-005
Heightened Def Con from 1.26616e-005 to 1.26616e-005
Heightened Def Con from 1.26616e-005 to 1.26616e-005
Heightened Def Con from 1.26616e-005 to 1.26616e-005
Heightened Def Con from 1.26616e-005 to 1.26616e-005
Heightened Def Con from 1.26616e-005 to 1.26616e-005
Heightened Def Con from 1.26616e-005 to 1.26616e-005
Heightened Def Con from 1.26616e-005 to 1.26616e-005
Heightened Def Con from 1.26616e-005 to 1.26616e-005
Heightened Def Con from 1.26616e-005 to 1.26616e-005
Heightened Def Con from 1.26616e-005 to 1.26616e-005
Heightened Def Con from 1.26616e-005 to 1.26616e-005
Heightened Def Con from 1.26616e-005 to 1.26616e-005
Heightened Def Con from 1.26616e-005 to 1.26616e-005
Heightened Def Con from 1.26616e-005 to 1.26617e-005
Heightened Def Con from 1.26617e-005 to 1.26617e-005
Heightened Def Con from 1.26617e-005 to 1.26617e-005
Heightened Def Con from 1.26617e-005 to 1.26617e-005
Heightened Def Con from 1.26617e-005 to 1.26617e-005
Heightened Def Con from 1.26617e-005 +to 1.26617e-005
Heightened Def Con from 1.26617e-005 to 1.26617e-005
Heightened Def Con from 1.26617e-005 to 1.26617e-005
Heightened Def Con from 1.26617e-005 to 1.26617e-005
Heightened Def Con from 1.26617e-005 to 1.26617e-005
Heightened Def Con from 1.26617e-005 to 1.26617e-005
Heightened Def Con from 1.26617e-005 to 1.26617e-005
Heightened Def Con from 1.26617e-005 to 1.26617e-005
Heightened Def Con from 1.26617e-005 to 1.26617e-005
Heightened Def Con from 1.26617e-005 to 1.26617e-005
Heightened Def Con from 1.26617e-005 to 1.26617e-005
Heightened Def Con from 1.26617e-005 to 1.26617e-005
Heightened Def Con from 1.26617e-005 to 1.26617e-005
Heightened Def Con from 1.26617e-005 to 1.26617e-005
Heightened Def Con from 1.26617e-005 to 1.26617e-005
Heightened Def Con from 1.26617e-005 to 1.26617e-005
Heightened Def Con from 1.26617e-005 to 1.26617e-005
Heightened Def Con from 1.26617e-005 to 1.26617e-005
Heightened Def Con from 1.26617e-005 to 1.26617e-005
Heightened Def Con from 1.26617e-005 to 1.26617e-005
Heightened Def Con from 1.26617e-005 to 1.26617e-005
Heightened Def Con from 1.26617e-005 to 1.26617e-005
Heightened Def Con from 1.26617e-005 to 1.26617e-005
Heightened Def Con from 1.26617e-005 to 1.26617e-005
Heightened Def Con from 1.26617e-005 to 1.26617e-005
Heightened Def Con from 1.26617e-005 to 1.26617e-005
Heightened Def Con from 1.26617e-005 to 1.26617e-005
Heightened Def Con from 1.26617e-005 to 1.26617e-005
Heightened Def Con from 1.26617e-005 to 1.26617e-005
Heightened Def Con from 1.26617e-005 to 1.26617e-005
Heightened Def Con from 1.26617e-005 to 1.26617e-005
Heightened Def Con from 1.26617e-005 to 1.26617e-005
Heightened Def Con from 1.26617e-005 to 1.26617e-005
Heightened Def Con from 1.26617e-005 to 1.26617e-005
Heightened Def Con from 1.26617e-005 to 1.26617e-005
Heightened Def Con from 1.26617e-005 to 1.26617e-005
Heightened Def Con from 1.26617e-005 to 1.26617e-005
Heightened Def Con from 1.26617e-005 to 1.26617e-005
Heightened Def Con from 1.26617e-005 to 1.26617e-005
Heightened Def Con from 1.26617e-005 to 1.26617e-005
Heightened Def Con from 1.26617e-005 to 1.26617e-005
Heightened Def Con from 1.26617e-005 to 1.26617e-005
Heightened Def Con from 1.26617e-005 to 1.26617e-005
Heightened Def Con from 1.26617e-005 to 1.26617e-005
Heightened Def Con from 1.26617e-005 to 1.26617e-005
Heightened Def Con from 1.26617e-005 to 1.26617e-005
Heightened Def Con from 1.26617e-005 to 1.26617e-005
Heightened Def Con from 1.26617e-005 to 1.26617e-005
Heightened Def Con from 1.26617e-005 to 1.26617e-005
Heightened Def Con from 1.26617e-005 to 1.26617e-005
Heightened Def Con from 1.26617e-005 to 1.26617e-005
Heightened Def Con from 1.26617e-005 to 1.26617e-005
Heightened Def Con from 1.26617e-005 to 1.26617e-005
Heightened Def Con from 1.26617e-005 to 1.26618e-005
Heightened Def Con from 1.26618e-005 to 1.26618e-005
Heightened Def Con from 1.26618e-005 to 1.26618e-005
Heightened Def Con from 1.26618e-005 to 1.26618e-005
Heightened Def Con from 1.26618e-005 to 1.26618e-005
Heightened Def Con from 1.26618e-005 to 1.26618e-005
Heightened Def Con from 1.26618e-005 to 1.26618e-005
Heightened Def Con from 1.26618e-005 to 1.26618e-005
Heightened Def Con from 1.26618e-005 to 1.26618e-005
Heightened Def Con from 1.26618e-005 to 1.26618e-005
Heightened Def Con from 1.26618e-005 to 1.26618e-005
Heightened Def Con from 1.26618e-005 to 1.26618e-005
Heightened Def Con from 1.26618e-005 to 1.26618e-005
Heightened Def Con from 1.26618e-005 to 1.26618e-005
Heightened Def Con from 1.26618e-005 to 1.26618e-005
Heightened Def Con from 1.26618e-005 to 1.26618e-005
Heightened Def Con from 1.26618e-005 to 1.26618e-005
Heightened Def Con from 1.26618e-005 to 1.26618e-005
Heightened Def Con from 1.26618e-005 to 1.26618e-005
Heightened Def Con from 1.26618e-005 to 1.26618e-005
Heightened Def Con from 1.26618e-005 to 1.26618e-005
Heightened Def Con from 1.26618e-005 to 1.26618e-005
Heightened Def Con from 1.26618e-005 to 1.26618e-005
Heightened Def Con from 1.26618e-005 to 1.26618e-005
Heightened Def Con from 1.26618e-005 to 1.26618e-005
Heightened Def Con from 1.26618e-005 to 1.26618e-005
Heightened Def Con from 1.26618e-005 to 1.26618e-005
Heightened Def Con from 1.26618e-005 to 1.26618e-005
Heightened Def Con from 1.26618e-005 to 1.26618e-005
Heightened Def Con from 1.26618e-005 to 1.26618e-005
Heightened Def Con from 1.26618e-005 to 1.26618e-005
Heightened Def Con from 1.26618e-005 to 1.26618e-005
Heightened Def Con from 1.26618e-005 to 1.26618e-005
Heightened Def Con from 1.26618e-005 to 1.26618e-005
Heightened Def Con from 1.26618e-005 to 1.26618e-005
Heightened Def Con from 1.26618e-005 to 1.26618e-005
Heightened Def Con from 1.26618e-005 to 1.26618e-005
Heightened Def Con from 1.26618e-005 to 1.26618e-005
Heightened Def Con from 1.26618e-005 to 1.26618e-005
Heightened Def Con from 1.26618e-005 to 1.26618e-005
Heightened Def Con from 1.26618e-005 to 1.26618e-005
Heightened Def Con from 1.26618e-005 to 1.26618e-005
Heightened Def Con from 1.26618e-005 to 1.26618e-005
Heightened Def Con from 1.26618e-005 to 1.26618e-005
Heightened Def Con from 1.26618e-005 to 1.26618e-005
Heightened Def Con from 1.26618e-005 to 1.26618e-005
Heightened Def Con from 1.26618e-005 to 1.26618e-005
Heightened Def Con from 1.26618e-005 to 1.26618e-005
Heightened Def Con from 1.26618e-005 to 1.26618e-005
Heightened Def Con from 1.26618e-005 to 1.26618e-005
Heightened Def Con from 1.26618e-005 to 1.26618e-005
Heightened Def Con from 1.26618e-005 to 1.26618e-005
Heightened Def Con from 1.26618e-005 to 1.26618e-005
Heightened Def Con from 1.26618e-005 to 1.26618e-005
Heightened Def Con from 1.26618e-005 to 1.26618e-005
Heightened Def Con from 1.26618e-005 to 1.26618e-005
Heightened Def Con from 1.26618e-005 to 1.26618e-005
Heightened Def Con from 1.26618e-005 to 1.26618e-005
Heightened Def Con from 1.26618e-005 to 1.26618e-005
Heightened Def Con from 1.26618e-005 to 1.26618e-005
Heightened Def Con from 1.26618e-005 to 1.26618e-005
Heightened Def Con from 1.26618e-005 to 1.26618e-005
Heightened Def Con from 1.26619e-005 to 1.26619e-005
Heightened Def Con from 1.26619e-005 to 1.26619e-005
Heightened Def Con from 1.26619e-005 to 1.26619e-005
Heightened Def Con from 1.26619e-005 to 1.26619e-005
Heightened Def Con from 1.26619e-005 to 1.26619e-005
Heightened Def Con from 1.26619e-005 to 1.26619e-005
Heightened Def Con from 1.26619e-005 to 1.26619e-005
Heightened Def Con from 1.26619e-005 to 1.26619e-005
Heightened Def Con from 1.26619e-005 to 1.26619e-005
Heightened Def Con from 1.26619e-005 to 1.26619e-005
Heightened Def Con from 1.26619e-005 to 1.26619e-005
Heightened Def Con from 1.26619e-005 to 1.26619e-005
Heightened Def Con from 1.26619e-005 to 1.26619e-005
Heightened Def Con from 1.26619e-005 to 1.26619e-005
Heightened Def Con from 1.26619e-005 to 1.26619e-005
Heightened Def Con from 1.26619e-005 to 1.26619e-005
Heightened Def Con from 1.26619e-005 to 1.26619e-005
Heightened Def Con from 1.26619e-005 to 1.26619e-005
Heightened Def Con from 1.26619e-005 to 1.26619e-005
Heightened Def Con from 1.26619e-005 to 1.26619e-005
Heightened Def Con from 1.26619e-005 to 1.26619e-005
Heightened Def Con from 1.26619e-005 to 1.26619e-005
Heightened Def Con from 1.26619e-005 to 1.26619e-005
Heightened Def Con from 1.26619e-005 to 1.26619e-005
Heightened Def Con from 1.26619e-005 to 1.26619e-005
Heightened Def Con from 1.26619e-005 to 1.26619e-005
Heightened Def Con from 1.26619e-005 to 1.26619e-005
Heightened Def Con from 1.26619e-005 to 1.26619e-005
Heightened Def Con from 1.26619e-005 to 1.26619e-005
Heightened Def Con from 1.26619e-005 to 1.26619e-005
Heightened Def Con from 1.26619e-005 to 1.26619e-005
Heightened Def Con from 1.26619e-005 to 1.26619e-005
Heightened Def Con from 1.26619e-005 to 1.26619e-005
Heightened Def Con from 1.26619e-005 +to 1.26619e-005
Heightened Def Con from 1.26619e-005 to 1.26619e-005
Heightened Def Con from 1.26619e-005 to 1.26619e-005
Heightened Def Con from 1.26619e-005 to 1.26619e-005
Heightened Def Con from 1.26619e-005 to 1.26619e-005
Heightened Def Con from 1.26619e-005 to 1.26619e-005
Heightened Def Con from 1.26619e-005 to 1.26619e-005
Heightened Def Con from 1.26619e-005 to 1.26619e-005
Heightened Def Con from 1.26619e-005 to 1.26619e-005
Heightened Def Con from 1.26619e-005 to 1.26619e-005
Heightened Def Con from 1.26619e-005 to 1.26619e-005
Heightened Def Con from 1.26619e-005 to 1.26619e-005
Heightened Def Con from 1.26619e-005 to 1.26619e-005
Heightened Def Con from 1.26619e-005 to 1.26619e-005
Heightened Def Con from 1.26619e-005 to 1.26619e-005
Heightened Def Con from 1.26619e-005 to 1.26619e-005
Heightened Def Con from 1.26619e-005 to 1.26619e-005
Heightened Def Con from 1.26619e-005 to 1.26619e-005
Heightened Def Con from 1.26619e-005 to 1.26619e-005
Heightened Def Con from 1.26619e-005 to 1.26619e-005
Heightened Def Con from 1.26619e-005 to 1.26619e-005
Heightened Def Con from 1.26619e-005 to 1.26619e-005
Heightened Def Con from 1.26619e-005 to 1.26619e-005
Heightened Def Con from 1.26619e-005 to 1.26619e-005
Heightened Def Con from 1.26619e-005 to 1.26619e-005
Heightened Def Con from 1.26619e-005 to 1.26619e-005
Heightened Def Con from 1.26619e-005 to 1.26619e-005
Heightened Def Con from 1.26619e-005 to 1.26619e-005
Heightened Def Con from 1.26619e-005 to 1.26619e-005
Heightened Def Con from 1.26619e-005 to 1.26619e-005
Heightened Def Con from 1.26619e-005 to 1.26619e-005
Heightened Def Con from 1.26619e-005 to 1.26619e-005
Heightened Def Con from 1.26619e-005 to 1.26619e-005
Heightened Def Con from 1.26619e-005 to 1.26619e-005
Heightened Def Con from 1.26619e-005 to 1.26619e-005
Heightened Def Con from 1.26619e-005 to 1.26619e-005
Heightened Def Con from 1.26619e-005 to 1.2662e-005
Heightened Def Con from 1.2662e-005 to 1.2662e-005
Heightened Def Con from 1.2662e-005 to 1.2662e-005
Heightened Def Con from 1.2662e-005 to 1.2662e-005
Heightened Def Con from 1.2662e-005 to 1.2662e-005
Heightened Def Con from 1.2662e-005 to 1.2662e-005
Heightened Def Con from 1.2662e-005 to 1.2662e-005
Heightened Def Con from 1.2662e-005 to 1.2662e-005
Heightened Def Con from 1.2662e-005 to 1.2662e-005
Heightened Def Con from 1.2662e-005 to 1.2662e-005
Heightened Def Con from 1.2662e-005 to 1.2662e-005
Heightened Def Con from 1.2662e-005 to 1.2662e-005
Heightened Def Con from 1.2662e-005 to 1.2662e-005
Heightened Def Con from 1.2662e-005 to 1.2662e-005
Heightened Def Con from 1.2662e-005 to 1.2662e-005
Heightened Def Con from 1.2662e-005 to 1.2662e-005
Heightened Def Con from 1.2662e-005 to 1.2662e-005
Heightened Def Con from 1.2662e-005 to 1.2662e-005
Heightened Def Con from 1.2662e-005 to 1.2662e-005
Heightened Def Con from 1.2662e-005 to 1.2662e-005
Heightened Def Con from 1.2662e-005 to 1.2662e-005
Heightened Def Con from 1.2662e-005 to 1.2662e-005
Heightened Def Con from 1.2662e-005 to 1.2662e-005
Heightened Def Con from 1.2662e-005 to 1.2662e-005
Heightened Def Con from 1.2662e-005 to 1.2662e-005
Heightened Def Con from 1.2662e-005 to 1.2662e-005
Heightened Def Con from 1.2662e-005 to 1.2662e-005
Heightened Def Con from 1.2662e-005 to 1.2662e-005
Heightened Def Con from 1.2662e-005 to 1.2662e-005
Heightened Def Con from 1.2662e-005 to 1.2662e-005
Heightened Def Con from 1.2662e-005 to 1.2662e-005
Heightened Def Con from 1.2662e-005 to 1.2662e-005
Heightened Def Con from 1.2662e-005 to 1.2662e-005
Heightened Def Con from 1.2662e-005 to 1.2662e-005
Heightened Def Con from 1.2662e-005 to 1.2662e-005
Heightened Def Con from 1.2662e-005 to 1.2662e-005
Heightened Def Con from 1.2662e-005 to 1.2662e-005
Heightened Def Con from 1.2662e-005 to 1.2662e-005
Heightened Def Con from 1.2662e-005 to 1.2662e-005
Heightened Def Con from 1.2662e-005 to 1.2662e-005
Heightened Def Con from 1.2662e-005 to 1.2662e-005
Heightened Def Con from 1.2662e-005 to 1.2662e-005
Heightened Def Con from 1.2662e-005 to 1.2662e-005
Heightened Def Con from 1.2662e-005 to 1.2662e-005
Heightened Def Con from 1.2662e-005 to 1.2662e-005
Heightened Def Con from 1.2662e-005 to 1.2662e-005
Heightened Def Con from 1.2662e-005 to 1.2662e-005
Heightened Def Con from 1.2662e-005 to 1.2662e-005
Heightened Def Con from 1.2662e-005 to 1.2662e-005
Heightened Def Con from 1.2662e-005 to 1.2662e-005
Heightened Def Con from 1.2662e-005 to 1.2662e-005
Heightened Def Con from 1.2662e-005 to 1.2662e-005
Heightened Def Con from 1.2662e-005 to 1.2662e-005
Heightened Def Con from 1.2662e-005 to 1.2662e-005
Heightened Def Con from 1.2662e-005 to 1.2662e-005
Heightened Def Con from 1.2662e-005 to 1.2662e-005
Heightened Def Con from 1.2662e-005 to 1.2662e-005
Heightened Def Con from 1.2662e-005 to 1.2662e-005
Heightened Def Con from 1.2662e-005 to 1.2662e-005
Heightened Def Con from 1.2662e-005 to 1.2662e-005
Heightened Def Con from 1.2662e-005 to 1.2662e-005
Heightened Def Con from 1.2662e-005 to 1.2662e-005
Heightened Def Con from 1.2662e-005 to 1.2662e-005
Heightened Def Con from 1.2662e-005 to 1.2662e-005
Heightened Def Con from 1.2662e-005 to 1.2662e-005
Heightened Def Con from 1.2662e-005 to 1.2662e-005
Heightened Def Con from 1.2662e-005 to 1.2662e-005
Heightened Def Con from 1.2662e-005 to 1.2662e-005
Heightened Def Con from 1.2662e-005 to 1.2662e-005
Heightened Def Con from 1.2662e-005 to 1.2662e-005
Heightened Def Con from 1.26621e-005 to 1.26621e-005
Heightened Def Con from 1.26621e-005 to 1.26621e-005
Heightened Def Con from 1.26621e-005 to 1.26621e-005
Heightened Def Con from 1.26621e-005 to 1.26621e-005
Heightened Def Con from 1.26621e-005 to 1.26621e-005
Heightened Def Con from 1.26621e-005 to 1.26621e-005
Heightened Def Con from 1.26621e-005 to 1.26621e-005
Heightened Def Con from 1.26621e-005 to 1.26621e-005
Heightened Def Con from 1.26621e-005 to 1.26621e-005
Heightened Def Con from 1.26621e-005 to 1.26621e-005
Heightened Def Con from 1.26621e-005 to 1.26621e-005
Heightened Def Con from 1.26621e-005 to 1.26621e-005
Heightened Def Con from 1.26621e-005 to 1.26621e-005
Heightened Def Con from 1.26621e-005 to 1.26621e-005
Heightened Def Con from 1.26621e-005 to 1.26621e-005
Heightened Def Con from 1.26621e-005 to 1.26621e-005
Heightened Def Con from 1.26621e-005 to 1.26621e-005
Heightened Def Con from 1.26621e-005 to 1.26621e-005
Heightened Def Con from 1.26621e-005 to 1.26628e-005
Heightened Def Con from 1.26629e-005 to 1.26689e-005
Heightened Def Con from 1.28532e-005 to 1.28562e-005
Heightened Def Con from 1.31693e-005 to 1.31723e-005
Heightened Def Con from 1.31783e-005 to 1.31813e-005
Heightened Def Con from 1.31833e-005 to 1.31855e-005
Heightened Def Con from 1.31856e-005 to 1.31869e-005
Heightened Def Con from 1.31869e-005 to 1.31877e-005
Heightened Def Con from 1.31882e-005 to 1.31922e-005
Heightened Def Con from 1.44224e-005 to 1.44306e-005
Heightened Def Con from 1.44308e-005 to 1.44311e-005
Heightened Def Con from 1.44311e-005 to 1.44391e-005
Heightened Def Con from 1.44406e-005 to 1.44487e-005
Heightened Def Con from 1.44488e-005 to 1.44489e-005
Heightened Def Con from 1.44489e-005 to 1.44489e-005
Heightened Def Con from 1.44489e-005 to 1.44489e-005
Heightened Def Con from 1.44489e-005 to 1.44519e-005
Heightened Def Con from 1.45926e-005 to 1.45929e-005
Heightened Def Con from 1.4593e-005 +to 1.45944e-005
Heightened Def Con from 1.45944e-005 to 1.46054e-005
Heightened Def Con from 1.47201e-005 to 1.47251e-005
Heightened Def Con from 1.51066e-005 to 1.51076e-005
Heightened Def Con from 1.51076e-005 to 1.51076e-005
Heightened Def Con from 1.51076e-005 to 1.51076e-005
Heightened Def Con from 1.51076e-005 to 1.51076e-005
Heightened Def Con from 1.51076e-005 to 1.51076e-005
Heightened Def Con from 1.51076e-005 to 1.51076e-005
Heightened Def Con from 1.51076e-005 to 1.51076e-005
Heightened Def Con from 1.51076e-005 to 1.51076e-005
Heightened Def Con from 1.51076e-005 to 1.51076e-005
Heightened Def Con from 1.51076e-005 to 1.51076e-005
Heightened Def Con from 1.51076e-005 to 1.51076e-005
Heightened Def Con from 1.51076e-005 to 1.51076e-005
Heightened Def Con from 1.51076e-005 to 1.51077e-005
Heightened Def Con from 1.51077e-005 to 1.51077e-005
Heightened Def Con from 1.51077e-005 to 1.51077e-005
Heightened Def Con from 1.51077e-005 to 1.51077e-005
Heightened Def Con from 1.51077e-005 to 1.51077e-005
Heightened Def Con from 1.51077e-005 to 1.51077e-005
Heightened Def Con from 1.51077e-005 to 1.51077e-005
Heightened Def Con from 1.51077e-005 +to 1.51077e-005
Heightened Def Con from 1.51077e-005 to 1.51077e-005
Heightened Def Con from 1.51077e-005 to 1.51077e-005
Heightened Def Con from 1.51077e-005 to 1.51077e-005
Heightened Def Con from 1.51077e-005 to 1.51077e-005
Heightened Def Con from 1.51077e-005 to 1.51077e-005
Heightened Def Con from 1.51077e-005 to 1.51077e-005
Heightened Def Con from 1.51077e-005 to 1.51077e-005
Heightened Def Con from 1.51077e-005 to 1.51077e-005
Heightened Def Con from 1.51077e-005 to 1.51077e-005
Heightened Def Con from 1.51077e-005 to 1.51077e-005
Heightened Def Con from 1.51077e-005 to 1.51077e-005
Heightened Def Con from 1.51077e-005 to 1.51077e-005
Heightened Def Con from 1.51077e-005 to 1.51077e-005
Heightened Def Con from 1.51077e-005 to 1.51077e-005
Heightened Def Con from 1.51077e-005 to 1.51077e-005
Heightened Def Con from 1.51077e-005 to 1.51077e-005
Heightened Def Con from 1.51077e-005 to 1.51077e-005
Heightened Def Con from 1.51077e-005 to 1.51077e-005
Heightened Def Con from 1.51077e-005 to 1.51077e-005
Heightened Def Con from 1.51077e-005 to 1.51077e-005
Heightened Def Con from 1.51077e-005 to 1.51077e-005
Heightened Def Con from 1.51077e-005 to 1.51077e-005
Heightened Def Con from 1.51077e-005 to 1.51077e-005
Heightened Def Con from 1.51077e-005 to 1.51077e-005
Heightened Def Con from 1.51077e-005 to 1.51077e-005
Heightened Def Con from 1.51077e-005 to 1.51077e-005
Heightened Def Con from 1.51077e-005 to 1.51077e-005
Heightened Def Con from 1.51077e-005 to 1.51077e-005
Heightened Def Con from 1.51086e-005 to 1.51086e-005
Heightened Def Con from 1.51086e-005 to 1.51086e-005
Heightened Def Con from 1.51086e-005 to 1.51086e-005
Heightened Def Con from 1.51086e-005 to 1.51086e-005
Heightened Def Con from 1.51086e-005 to 1.51086e-005
Heightened Def Con from 1.51086e-005 to 1.51086e-005
Heightened Def Con from 1.51086e-005 to 1.51086e-005
Heightened Def Con from 1.51086e-005 to 1.51086e-005
Heightened Def Con from 1.51086e-005 to 1.51086e-005
Heightened Def Con from 1.51086e-005 to 1.51086e-005
Heightened Def Con from 1.51086e-005 to 1.51086e-005
Heightened Def Con from 1.51086e-005 to 1.51086e-005
Heightened Def Con from 1.51086e-005 to 1.51086e-005
Heightened Def Con from 1.51086e-005 to 1.51086e-005
Heightened Def Con from 1.51086e-005 to 1.51086e-005
Heightened Def Con from 1.51086e-005 to 1.51086e-005
Heightened Def Con from 1.51086e-005 to 1.51086e-005
Heightened Def Con from 1.51086e-005 to 1.51086e-005
Heightened Def Con from 1.51086e-005 to 1.51086e-005
Heightened Def Con from 1.51086e-005 to 1.51086e-005
Heightened Def Con from 1.51086e-005 to 1.51086e-005
Heightened Def Con from 1.51086e-005 to 1.51086e-005
Heightened Def Con from 1.51086e-005 to 1.51086e-005
Heightened Def Con from 1.51086e-005 to 1.51086e-005
Heightened Def Con from 1.51086e-005 to 1.51086e-005
Heightened Def Con from 1.51086e-005 to 1.51086e-005
Heightened Def Con from 1.51086e-005 to 1.51086e-005
Heightened Def Con from 1.51086e-005 to 1.51086e-005
Heightened Def Con from 1.51086e-005 to 1.51086e-005
Heightened Def Con from 1.51086e-005 to 1.51086e-005
Heightened Def Con from 1.51086e-005 to 1.51086e-005
Heightened Def Con from 1.51086e-005 to 1.51086e-005
Heightened Def Con from 1.51086e-005 to 1.51086e-005
Heightened Def Con from 1.51086e-005 to 1.51086e-005
Heightened Def Con from 1.51086e-005 to 1.51086e-005
Heightened Def Con from 1.51086e-005 to 1.51086e-005
Heightened Def Con from 1.51086e-005 to 1.51086e-005
Heightened Def Con from 1.51086e-005 to 1.51086e-005
Heightened Def Con from 1.51086e-005 to 1.51086e-005
Heightened Def Con from 1.51086e-005 to 1.51095e-005
Heightened Def Con from 1.51566e-005 to 1.51616e-005
Heightened Def Con from 1.58845e-005 to 1.58865e-005
Heightened Def Con from 1.67003e-005 to 1.67022e-005
Heightened Def Con from 1.67406e-005 to 1.67526e-005
Heightened Def Con from 1.67546e-005 to 1.67576e-005
Heightened Def Con from 1.68015e-005 to 1.68015e-005
Heightened Def Con from 1.68015e-005 to 1.68015e-005
Heightened Def Con from 1.68016e-005 to 1.68016e-005
Heightened Def Con from 1.68016e-005 to 1.68017e-005
Heightened Def Con from 1.68017e-005 to 1.68035e-005
Heightened Def Con from 1.68502e-005 to 1.68502e-005
Heightened Def Con from 1.68502e-005 to 1.68502e-005
Heightened Def Con from 1.68502e-005 to 1.68502e-005
Heightened Def Con from 1.68502e-005 to 1.68502e-005
Heightened Def Con from 1.68502e-005 to 1.68502e-005
Heightened Def Con from 1.68502e-005 to 1.68502e-005
Heightened Def Con from 1.68502e-005 to 1.68502e-005
Heightened Def Con from 1.68502e-005 to 1.68502e-005
Heightened Def Con from 1.68502e-005 to 1.68502e-005
Heightened Def Con from 1.68502e-005 to 1.68502e-005
Heightened Def Con from 1.68502e-005 to 1.68502e-005
Heightened Def Con from 1.68502e-005 to 1.68502e-005
Heightened Def Con from 1.68502e-005 to 1.68502e-005
Heightened Def Con from 1.68502e-005 to 1.68502e-005
Heightened Def Con from 1.68502e-005 to 1.68502e-005
Heightened Def Con from 1.68503e-005 to 1.68503e-005
Heightened Def Con from 1.68503e-005 to 1.68503e-005
Heightened Def Con from 1.68503e-005 to 1.68503e-005
Heightened Def Con from 1.68503e-005 to 1.68503e-005
Heightened Def Con from 1.68503e-005 to 1.68503e-005
Heightened Def Con from 1.68503e-005 to 1.68503e-005
Heightened Def Con from 1.68503e-005 to 1.68503e-005
Heightened Def Con from 1.68503e-005 to 1.68503e-005
Heightened Def Con from 1.68503e-005 to 1.68503e-005
Heightened Def Con from 1.68503e-005 to 1.68503e-005
Heightened Def Con from 1.68503e-005 to 1.68503e-005
Heightened Def Con from 1.68503e-005 to 1.68503e-005
Heightened Def Con from 1.68503e-005 to 1.68503e-005
Heightened Def Con from 1.68503e-005 to 1.68503e-005
Heightened Def Con from 1.68503e-005 to 1.68503e-005
Heightened Def Con from 1.68503e-005 to 1.68503e-005
Heightened Def Con from 1.68503e-005 to 1.68503e-005
Heightened Def Con from 1.68503e-005 to 1.68503e-005
Heightened Def Con from 1.68503e-005 to 1.68503e-005
Heightened Def Con from 1.68503e-005 to 1.68503e-005
Heightened Def Con from 1.68503e-005 to 1.68503e-005
Heightened Def Con from 1.68503e-005 to 1.68503e-005
Heightened Def Con from 1.68503e-005 to 1.68503e-005
Heightened Def Con from 1.68503e-005 to 1.68503e-005
Heightened Def Con from 1.68503e-005 to 1.68503e-005
Heightened Def Con from 1.68503e-005 to 1.68503e-005
Heightened Def Con from 1.68503e-005 to 1.68503e-005
Heightened Def Con from 1.68503e-005 to 1.68503e-005
Heightened Def Con from 1.68503e-005 to 1.68503e-005
Heightened Def Con from 1.68503e-005 to 1.68503e-005
Heightened Def Con from 1.68503e-005 to 1.68503e-005
Heightened Def Con from 1.68503e-005 to 1.68503e-005
Heightened Def Con from 1.68503e-005 to 1.68503e-005
Heightened Def Con from 1.68503e-005 to 1.68503e-005
Heightened Def Con from 1.68503e-005 to 1.68503e-005
Heightened Def Con from 1.68503e-005 to 1.68503e-005
Heightened Def Con from 1.68503e-005 to 1.68503e-005
Heightened Def Con from 1.68503e-005 to 1.68503e-005
Heightened Def Con from 1.68503e-005 to 1.68503e-005
Heightened Def Con from 1.68503e-005 to 1.68503e-005
Heightened Def Con from 1.68503e-005 to 1.68503e-005
Heightened Def Con from 1.68503e-005 to 1.68503e-005
Heightened Def Con from 1.68503e-005 to 1.68503e-005
Heightened Def Con from 1.68503e-005 to 1.68503e-005
Heightened Def Con from 1.68503e-005 to 1.68503e-005
Heightened Def Con from 1.68503e-005 to 1.68503e-005
Heightened Def Con from 1.68503e-005 to 1.68503e-005
Heightened Def Con from 1.68503e-005 to 1.68503e-005
Heightened Def Con from 1.68503e-005 to 1.68503e-005
Heightened Def Con from 1.68503e-005 to 1.68503e-005
Heightened Def Con from 1.68503e-005 to 1.68503e-005
Heightened Def Con from 1.68503e-005 to 1.68503e-005
Heightened Def Con from 1.68503e-005 to 1.68503e-005
Heightened Def Con from 1.68503e-005 to 1.68503e-005
Heightened Def Con from 1.68503e-005 to 1.68503e-005
Heightened Def Con from 1.68503e-005 to 1.68503e-005
Heightened Def Con from 1.68503e-005 to 1.68503e-005
Heightened Def Con from 1.68503e-005 to 1.68503e-005
Heightened Def Con from 1.68503e-005 to 1.68503e-005
Heightened Def Con from 1.68503e-005 to 1.68503e-005
Heightened Def Con from 1.68503e-005 to 1.68503e-005
Heightened Def Con from 1.68503e-005 to 1.68503e-005
Heightened Def Con from 1.68503e-005 to 1.68503e-005
Heightened Def Con from 1.68503e-005 to 1.68503e-005
Heightened Def Con from 1.68503e-005 to 1.68503e-005
Heightened Def Con from 1.68503e-005 to 1.68503e-005
Heightened Def Con from 1.68503e-005 to 1.68503e-005
Heightened Def Con from 1.68503e-005 to 1.68503e-005
Heightened Def Con from 1.68503e-005 to 1.68503e-005
Heightened Def Con from 1.68503e-005 to 1.68503e-005
Heightened Def Con from 1.68503e-005 to 1.68503e-005
Heightened Def Con from 1.68503e-005 to 1.68503e-005
Heightened Def Con from 1.68503e-005 to 1.68503e-005
Heightened Def Con from 1.68503e-005 to 1.68503e-005
Heightened Def Con from 1.68503e-005 to 1.68503e-005
Heightened Def Con from 1.68503e-005 to 1.68503e-005
Heightened Def Con from 1.68503e-005 to 1.68503e-005
Heightened Def Con from 1.68503e-005 to 1.68503e-005
Heightened Def Con from 1.68503e-005 to 1.68503e-005
Heightened Def Con from 1.68503e-005 to 1.68504e-005
Heightened Def Con from 1.68504e-005 to 1.68504e-005
Heightened Def Con from 1.68504e-005 to 1.68504e-005
Heightened Def Con from 1.68504e-005 to 1.68504e-005
Heightened Def Con from 1.68504e-005 to 1.68504e-005
Heightened Def Con from 1.68504e-005 to 1.68504e-005
Heightened Def Con from 1.68504e-005 to 1.68504e-005
Heightened Def Con from 1.68504e-005 to 1.68504e-005
Heightened Def Con from 1.68504e-005 to 1.68504e-005
Heightened Def Con from 1.68504e-005 to 1.68504e-005
Heightened Def Con from 1.68504e-005 to 1.68504e-005
Heightened Def Con from 1.68504e-005 to 1.68504e-005
Heightened Def Con from 1.68504e-005 to 1.68504e-005
Heightened Def Con from 1.68504e-005 to 1.68504e-005
Heightened Def Con from 1.68504e-005 to 1.68504e-005
Heightened Def Con from 1.68504e-005 to 1.68504e-005
Heightened Def Con from 1.68504e-005 to 1.68504e-005
Heightened Def Con from 1.68504e-005 to 1.68504e-005
Heightened Def Con from 1.68504e-005 to 1.68504e-005
Heightened Def Con from 1.68504e-005 to 1.68504e-005
Heightened Def Con from 1.68504e-005 to 1.68504e-005
Heightened Def Con from 1.68504e-005 to 1.68504e-005
Heightened Def Con from 1.68504e-005 to 1.68504e-005
Heightened Def Con from 1.68504e-005 to 1.68504e-005
Heightened Def Con from 1.68504e-005 to 1.68504e-005
Heightened Def Con from 1.68504e-005 to 1.68504e-005
Heightened Def Con from 1.68504e-005 to 1.68504e-005
Heightened Def Con from 1.68504e-005 to 1.68504e-005
Heightened Def Con from 1.68504e-005 to 1.68504e-005
Heightened Def Con from 1.68504e-005 to 1.68504e-005
Heightened Def Con from 1.68504e-005 to 1.68504e-005
Heightened Def Con from 1.68504e-005 to 1.68504e-005
Heightened Def Con from 1.68504e-005 to 1.68504e-005
Heightened Def Con from 1.68504e-005 to 1.68504e-005
Heightened Def Con from 1.68504e-005 to 1.68504e-005
Heightened Def Con from 1.68504e-005 to 1.68504e-005
Heightened Def Con from 1.68504e-005 to 1.68504e-005
Heightened Def Con from 1.68504e-005 to 1.68504e-005
Heightened Def Con from 1.68504e-005 to 1.68504e-005
Heightened Def Con from 1.68504e-005 to 1.68504e-005
Heightened Def Con from 1.68504e-005 to 1.68504e-005
Heightened Def Con from 1.68504e-005 to 1.68504e-005
Heightened Def Con from 1.68504e-005 to 1.68504e-005
Heightened Def Con from 1.68504e-005 to 1.68504e-005
Heightened Def Con from 1.68504e-005 to 1.68504e-005
Heightened Def Con from 1.68504e-005 to 1.68504e-005
Heightened Def Con from 1.68504e-005 to 1.68504e-005
Heightened Def Con from 1.68504e-005 to 1.68504e-005
Heightened Def Con from 1.68504e-005 to 1.68504e-005
Heightened Def Con from 1.68504e-005 to 1.68504e-005
Heightened Def Con from 1.68504e-005 to 1.68504e-005
Heightened Def Con from 1.68504e-005 to 1.68504e-005
Heightened Def Con from 1.68504e-005 to 1.68504e-005
Heightened Def Con from 1.68504e-005 to 1.68504e-005
Heightened Def Con from 1.68504e-005 to 1.68504e-005
Heightened Def Con from 1.68504e-005 to 1.68504e-005
Heightened Def Con from 1.68504e-005 to 1.68504e-005
Heightened Def Con from 1.68504e-005 to 1.68504e-005
Heightened Def Con from 1.68504e-005 to 1.68504e-005
Heightened Def Con from 1.68504e-005 to 1.68504e-005
Heightened Def Con from 1.68504e-005 to 1.68504e-005
Heightened Def Con from 1.68504e-005 to 1.68504e-005
Heightened Def Con from 1.68504e-005 to 1.68504e-005
Heightened Def Con from 1.68504e-005 to 1.68504e-005
Heightened Def Con from 1.68504e-005 to 1.68504e-005
Heightened Def Con from 1.68504e-005 to 1.68504e-005
Heightened Def Con from 1.68504e-005 to 1.68504e-005
Heightened Def Con from 1.68504e-005 +to 1.68504e-005
Heightened Def Con from 1.68504e-005 to 1.68504e-005
Heightened Def Con from 1.68504e-005 to 1.68504e-005
Heightened Def Con from 1.68504e-005 to 1.68524e-005
Heightened Def Con from 1.68787e-005 to 1.68877e-005
Heightened Def Con from 1.71277e-005 to 1.71307e-005
Heightened Def Con from 1.74634e-005 to 1.74645e-005
Heightened Def Con from 1.7465e-005 to 1.74663e-005
Heightened Def Con from 1.74663e-005 to 1.74671e-005
Heightened Def Con from 1.74672e-005 to 1.74702e-005
Heightened Def Con from 1.92944e-005 to 1.92984e-005
Heightened Def Con from 1.93007e-005 to 1.93047e-005
Heightened Def Con from 1.93065e-005 to 1.93115e-005
Heightened Def Con from 1.93461e-005 to 1.93533e-005
Heightened Def Con from 1.9354e-005 to 1.9354e-005
Heightened Def Con from 1.9354e-005 to 1.9354e-005
Heightened Def Con from 1.9354e-005 to 1.9354e-005
Heightened Def Con from 1.9354e-005 to 1.9354e-005
Heightened Def Con from 1.9354e-005 to 1.9354e-005
Heightened Def Con from 1.9354e-005 to 1.9354e-005
Heightened Def Con from 1.9354e-005 to 1.9357e-005
Heightened Def Con from 1.94994e-005 to 1.95024e-005
Heightened Def Con from 1.95035e-005 to 1.95048e-005
Heightened Def Con from 1.95048e-005 to 1.95054e-005
Heightened Def Con from 1.9551e-005 to 1.9554e-005
Heightened Def Con from 1.97515e-005 to 1.97545e-005
Heightened Def Con from 1.99996e-005 to 2.00016e-005
Heightened Def Con from 2.00178e-005 to 2.00178e-005
Heightened Def Con from 2.00178e-005 to 2.00178e-005
Heightened Def Con from 2.00178e-005 to 2.00178e-005
Heightened Def Con from 2.00178e-005 to 2.00179e-005
Heightened Def Con from 2.00179e-005 to 2.00179e-005
Heightened Def Con from 2.00179e-005 to 2.00179e-005
Heightened Def Con from 2.00179e-005 to 2.00179e-005
Heightened Def Con from 2.00179e-005 to 2.00179e-005
Heightened Def Con from 2.00179e-005 to 2.00179e-005
Heightened Def Con from 2.00179e-005 to 2.00179e-005
Heightened Def Con from 2.00179e-005 to 2.00179e-005
Heightened Def Con from 2.00179e-005 to 2.00179e-005
Heightened Def Con from 2.00179e-005 to 2.00179e-005
Heightened Def Con from 2.00179e-005 to 2.00179e-005
Heightened Def Con from 2.00179e-005 to 2.00179e-005
Heightened Def Con from 2.00179e-005 to 2.00179e-005
Heightened Def Con from 2.00179e-005 to 2.00179e-005
Heightened Def Con from 2.00179e-005 to 2.00179e-005
Heightened Def Con from 2.00179e-005 to 2.00179e-005
Heightened Def Con from 2.00179e-005 to 2.00179e-005
Heightened Def Con from 2.00179e-005 to 2.00179e-005
Heightened Def Con from 2.00179e-005 to 2.00179e-005
Heightened Def Con from 2.00179e-005 to 2.00179e-005
Heightened Def Con from 2.00179e-005 to 2.00179e-005
Heightened Def Con from 2.00179e-005 to 2.00179e-005
Heightened Def Con from 2.00179e-005 to 2.00179e-005
Heightened Def Con from 2.00179e-005 to 2.00179e-005
Heightened Def Con from 2.00179e-005 to 2.00179e-005
Heightened Def Con from 2.00179e-005 to 2.00179e-005
Heightened Def Con from 2.00179e-005 to 2.00179e-005
Heightened Def Con from 2.00179e-005 to 2.00179e-005
Heightened Def Con from 2.00179e-005 to 2.00179e-005
Heightened Def Con from 2.00179e-005 to 2.00179e-005
Heightened Def Con from 2.00179e-005 to 2.00179e-005
Heightened Def Con from 2.00179e-005 to 2.00179e-005
Heightened Def Con from 2.00179e-005 to 2.00179e-005
Heightened Def Con from 2.00179e-005 to 2.00179e-005
Heightened Def Con from 2.00179e-005 to 2.00179e-005
Heightened Def Con from 2.00179e-005 to 2.00179e-005
Heightened Def Con from 2.00179e-005 to 2.00179e-005
Heightened Def Con from 2.00179e-005 to 2.00179e-005
Heightened Def Con from 2.00179e-005 to 2.00179e-005
Heightened Def Con from 2.00179e-005 to 2.00179e-005
Heightened Def Con from 2.00179e-005 to 2.00179e-005
Heightened Def Con from 2.00179e-005 to 2.00179e-005
Heightened Def Con from 2.00179e-005 to 2.00179e-005
Heightened Def Con from 2.00179e-005 to 2.00179e-005
Heightened Def Con from 2.00179e-005 to 2.00179e-005
Heightened Def Con from 2.00179e-005 to 2.00179e-005
Heightened Def Con from 2.00179e-005 to 2.00179e-005
Heightened Def Con from 2.00179e-005 to 2.00179e-005
Heightened Def Con from 2.00179e-005 to 2.00179e-005
Heightened Def Con from 2.00179e-005 to 2.00179e-005
Heightened Def Con from 2.00179e-005 to 2.00179e-005
Heightened Def Con from 2.00179e-005 to 2.00179e-005
Heightened Def Con from 2.00179e-005 to 2.00179e-005
Heightened Def Con from 2.00179e-005 to 2.0018e-005
Heightened Def Con from 2.0018e-005 to 2.0018e-005
Heightened Def Con from 2.0018e-005 to 2.0018e-005
Heightened Def Con from 2.0018e-005 to 2.0018e-005
Heightened Def Con from 2.0018e-005 to 2.0018e-005
Heightened Def Con from 2.0018e-005 to 2.0018e-005
Heightened Def Con from 2.0018e-005 to 2.0018e-005
Heightened Def Con from 2.0018e-005 to 2.0018e-005
Heightened Def Con from 2.0018e-005 to 2.0018e-005
Heightened Def Con from 2.0018e-005 to 2.0018e-005
Heightened Def Con from 2.0018e-005 to 2.0018e-005
Heightened Def Con from 2.0018e-005 to 2.0018e-005
Heightened Def Con from 2.0018e-005 to 2.0018e-005
Heightened Def Con from 2.0018e-005 to 2.0018e-005
Heightened Def Con from 2.0018e-005 to 2.0018e-005
Heightened Def Con from 2.0018e-005 to 2.0018e-005
Heightened Def Con from 2.0018e-005 to 2.0018e-005
Heightened Def Con from 2.0018e-005 to 2.0018e-005
Heightened Def Con from 2.0018e-005 to 2.0018e-005
Heightened Def Con from 2.0018e-005 to 2.0018e-005
Heightened Def Con from 2.0018e-005 to 2.0018e-005
Heightened Def Con from 2.0018e-005 to 2.0018e-005
Heightened Def Con from 2.0018e-005 to 2.0018e-005
Heightened Def Con from 2.0018e-005 to 2.0018e-005
Heightened Def Con from 2.0018e-005 to 2.0018e-005
Heightened Def Con from 2.0018e-005 to 2.0018e-005
Heightened Def Con from 2.0018e-005 to 2.0018e-005
Heightened Def Con from 2.0018e-005 to 2.0018e-005
Heightened Def Con from 2.0018e-005 to 2.0018e-005
Heightened Def Con from 2.0018e-005 to 2.0018e-005
Heightened Def Con from 2.0018e-005 to 2.0018e-005
Heightened Def Con from 2.0018e-005 to 2.0018e-005
Heightened Def Con from 2.0018e-005 to 2.0018e-005
Heightened Def Con from 2.0018e-005 to 2.0018e-005
Heightened Def Con from 2.0018e-005 to 2.0018e-005
Heightened Def Con from 2.0018e-005 to 2.0018e-005
Heightened Def Con from 2.0018e-005 to 2.0018e-005
Heightened Def Con from 2.0018e-005 to 2.0018e-005
Heightened Def Con from 2.0018e-005 to 2.0018e-005
Heightened Def Con from 2.0018e-005 to 2.0018e-005
Heightened Def Con from 2.0018e-005 to 2.0018e-005
Heightened Def Con from 2.0018e-005 to 2.0018e-005
Heightened Def Con from 2.0018e-005 to 2.0018e-005
Heightened Def Con from 2.0018e-005 to 2.0018e-005
Heightened Def Con from 2.0018e-005 to 2.0018e-005
Heightened Def Con from 2.0018e-005 to 2.0018e-005
Heightened Def Con from 2.0018e-005 to 2.0018e-005
Heightened Def Con from 2.0018e-005 to 2.0018e-005
Heightened Def Con from 2.0018e-005 to 2.0018e-005
Heightened Def Con from 2.0018e-005 to 2.0018e-005
Heightened Def Con from 2.0018e-005 to 2.0018e-005
Heightened Def Con from 2.0018e-005 to 2.0018e-005
Heightened Def Con from 2.0018e-005 to 2.0018e-005
Heightened Def Con from 2.0018e-005 to 2.0018e-005
Heightened Def Con from 2.0018e-005 to 2.0018e-005
Heightened Def Con from 2.0018e-005 to 2.0018e-005
Heightened Def Con from 2.0018e-005 to 2.0018e-005
Heightened Def Con from 2.0018e-005 +to 2.0018e-005
Heightened Def Con from 2.0018e-005 to 2.0018e-005
Heightened Def Con from 2.0018e-005 to 2.0018e-005
Heightened Def Con from 2.0018e-005 to 2.0018e-005
Heightened Def Con from 2.0018e-005 to 2.0018e-005
Heightened Def Con from 2.0018e-005 to 2.0018e-005
Heightened Def Con from 2.0018e-005 to 2.00181e-005
Heightened Def Con from 2.00181e-005 to 2.00181e-005
Heightened Def Con from 2.00181e-005 to 2.00181e-005
Heightened Def Con from 2.00181e-005 +to 2.00181e-005
Heightened Def Con from 2.00181e-005 to 2.00181e-005
Heightened Def Con from 2.00181e-005 to 2.00181e-005
Heightened Def Con from 2.00181e-005 to 2.00181e-005
Heightened Def Con from 2.00181e-005 to 2.00181e-005
Heightened Def Con from 2.00181e-005 to 2.00181e-005
Heightened Def Con from 2.00181e-005 to 2.00181e-005
Heightened Def Con from 2.00181e-005 to 2.00181e-005
Heightened Def Con from 2.00181e-005 to 2.00181e-005
Heightened Def Con from 2.00181e-005 to 2.00181e-005
Heightened Def Con from 2.00181e-005 to 2.00181e-005
Heightened Def Con from 2.00181e-005 to 2.00181e-005
Heightened Def Con from 2.00181e-005 to 2.00181e-005
Heightened Def Con from 2.00181e-005 to 2.00181e-005
Heightened Def Con from 2.00181e-005 to 2.00181e-005
Heightened Def Con from 2.00181e-005 to 2.00181e-005
Heightened Def Con from 2.00181e-005 to 2.00181e-005
Heightened Def Con from 2.00181e-005 to 2.00181e-005
Heightened Def Con from 2.00181e-005 to 2.00181e-005
Heightened Def Con from 2.00181e-005 to 2.00181e-005
Heightened Def Con from 2.00181e-005 to 2.00181e-005
Heightened Def Con from 2.00181e-005 to 2.00181e-005
Heightened Def Con from 2.00181e-005 to 2.00181e-005
Heightened Def Con from 2.00181e-005 to 2.00181e-005
Heightened Def Con from 2.00181e-005 to 2.00181e-005
Heightened Def Con from 2.00181e-005 to 2.00181e-005
Heightened Def Con from 2.00181e-005 to 2.00181e-005
Heightened Def Con from 2.00181e-005 to 2.00181e-005
Heightened Def Con from 2.00181e-005 to 2.00181e-005
Heightened Def Con from 2.00181e-005 to 2.00181e-005
Heightened Def Con from 2.00181e-005 to 2.00181e-005
Heightened Def Con from 2.00181e-005 to 2.00181e-005
Heightened Def Con from 2.00181e-005 to 2.00181e-005
Heightened Def Con from 2.00181e-005 to 2.00181e-005
Heightened Def Con from 2.00181e-005 to 2.00181e-005
Heightened Def Con from 2.00181e-005 to 2.00181e-005
Heightened Def Con from 2.00181e-005 to 2.00181e-005
Heightened Def Con from 2.00181e-005 to 2.00181e-005
Heightened Def Con from 2.00181e-005 to 2.00181e-005
Heightened Def Con from 2.00181e-005 to 2.00181e-005
Heightened Def Con from 2.00181e-005 to 2.00181e-005
Heightened Def Con from 2.00181e-005 to 2.00181e-005
Heightened Def Con from 2.00181e-005 to 2.00181e-005
Heightened Def Con from 2.00181e-005 to 2.00181e-005
Heightened Def Con from 2.00184e-005 to 2.00184e-005
Heightened Def Con from 2.00184e-005 to 2.00184e-005
Heightened Def Con from 2.00184e-005 to 2.00184e-005
Heightened Def Con from 2.00184e-005 to 2.00184e-005
Heightened Def Con from 2.00184e-005 to 2.00184e-005
Heightened Def Con from 2.00184e-005 to 2.00184e-005
Heightened Def Con from 2.00184e-005 to 2.00184e-005
Heightened Def Con from 2.00184e-005 to 2.00184e-005
Heightened Def Con from 2.00184e-005 to 2.00184e-005
Heightened Def Con from 2.00184e-005 to 2.00184e-005
Heightened Def Con from 2.00184e-005 to 2.00184e-005
Heightened Def Con from 2.00184e-005 to 2.00184e-005
Heightened Def Con from 2.00184e-005 to 2.00184e-005
Heightened Def Con from 2.00184e-005 to 2.00184e-005
Heightened Def Con from 2.00184e-005 to 2.00184e-005
Heightened Def Con from 2.00184e-005 to 2.00184e-005
Heightened Def Con from 2.00184e-005 to 2.00184e-005
Heightened Def Con from 2.00184e-005 to 2.00184e-005
Heightened Def Con from 2.00184e-005 to 2.00184e-005
Heightened Def Con from 2.00184e-005 +to 2.00184e-005
Heightened Def Con from 2.00184e-005 to 2.00184e-005
Heightened Def Con from 2.00184e-005 to 2.00184e-005
Heightened Def Con from 2.00184e-005 to 2.00184e-005
Heightened Def Con from 2.00184e-005 to 2.00184e-005
Heightened Def Con from 2.00184e-005 to 2.00184e-005
Heightened Def Con from 2.00184e-005 to 2.00184e-005
Heightened Def Con from 2.00184e-005 to 2.00184e-005
Heightened Def Con from 2.00184e-005 to 2.00184e-005
Heightened Def Con from 2.00184e-005 to 2.00184e-005
Heightened Def Con from 2.00184e-005 to 2.00184e-005
Heightened Def Con from 2.00184e-005 to 2.00184e-005
Heightened Def Con from 2.00184e-005 to 2.00184e-005
Heightened Def Con from 2.00184e-005 to 2.00185e-005
Heightened Def Con from 2.00185e-005 to 2.00185e-005
Heightened Def Con from 2.00185e-005 to 2.00185e-005
Heightened Def Con from 2.00185e-005 to 2.00193e-005
Heightened Def Con from 2.00666e-005 to 2.00716e-005
Heightened Def Con from 2.11582e-005 +to 2.11602e-005
Heightened Def Con from 2.11606e-005 to 2.11616e-005
Heightened Def Con from 2.11616e-005 to 2.11616e-005
Heightened Def Con from 2.11616e-005 to 2.11616e-005
Heightened Def Con from 2.11616e-005 to 2.11616e-005
Heightened Def Con from 2.11617e-005 to 2.11617e-005
Heightened Def Con from 2.11617e-005 to 2.11617e-005
Heightened Def Con from 2.11617e-005 to 2.11617e-005
Heightened Def Con from 2.11618e-005 to 2.11618e-005
Heightened Def Con from 2.11618e-005 to 2.11618e-005
Heightened Def Con from 2.11618e-005 to 2.11618e-005
Heightened Def Con from 2.11631e-005 to 2.11652e-005
Heightened Def Con from 2.11653e-005 to 2.11703e-005
Heightened Def Con from 2.1309e-005 to 2.1312e-005
Heightened Def Con from 2.13121e-005 to 2.13131e-005
Heightened Def Con from 2.13131e-005 to 2.13131e-005
Heightened Def Con from 2.13131e-005 to 2.13131e-005
Heightened Def Con from 2.13131e-005 to 2.13131e-005
Heightened Def Con from 2.13131e-005 to 2.13131e-005
Heightened Def Con from 2.13131e-005 to 2.13131e-005
Heightened Def Con from 2.13131e-005 to 2.13131e-005
Heightened Def Con from 2.13131e-005 to 2.13131e-005
Heightened Def Con from 2.13131e-005 to 2.13131e-005
Heightened Def Con from 2.13131e-005 to 2.13131e-005
Heightened Def Con from 2.13131e-005 to 2.13131e-005
Heightened Def Con from 2.13131e-005 to 2.13131e-005
Heightened Def Con from 2.13131e-005 to 2.13131e-005
Heightened Def Con from 2.13131e-005 to 2.13131e-005
Heightened Def Con from 2.13131e-005 to 2.13131e-005
Heightened Def Con from 2.13131e-005 to 2.13131e-005
Heightened Def Con from 2.13131e-005 to 2.13131e-005
Heightened Def Con from 2.13131e-005 to 2.13131e-005
Heightened Def Con from 2.13131e-005 to 2.13131e-005
Heightened Def Con from 2.13131e-005 to 2.13131e-005
Heightened Def Con from 2.13131e-005 to 2.13131e-005
Heightened Def Con from 2.13131e-005 to 2.13131e-005
Heightened Def Con from 2.13131e-005 to 2.13131e-005
Heightened Def Con from 2.13131e-005 to 2.13131e-005
Heightened Def Con from 2.13131e-005 to 2.13131e-005
Heightened Def Con from 2.13131e-005 to 2.13131e-005
Heightened Def Con from 2.13131e-005 to 2.13131e-005
Heightened Def Con from 2.13131e-005 to 2.13131e-005
Heightened Def Con from 2.13131e-005 to 2.13131e-005
Heightened Def Con from 2.13131e-005 to 2.13131e-005
Heightened Def Con from 2.13131e-005 to 2.13131e-005
Heightened Def Con from 2.13131e-005 +to 2.13131e-005
Heightened Def Con from 2.13131e-005 to 2.13131e-005
Heightened Def Con from 2.13131e-005 to 2.13131e-005
Heightened Def Con from 2.13131e-005 to 2.13131e-005
Heightened Def Con from 2.13131e-005 to 2.13131e-005
Heightened Def Con from 2.13131e-005 to 2.13131e-005
Heightened Def Con from 2.13131e-005 to 2.13131e-005
Heightened Def Con from 2.13131e-005 to 2.13131e-005
Heightened Def Con from 2.13131e-005 to 2.13131e-005
Heightened Def Con from 2.13131e-005 to 2.13131e-005
Heightened Def Con from 2.13131e-005 to 2.13131e-005
Heightened Def Con from 2.13131e-005 to 2.13131e-005
Heightened Def Con from 2.13131e-005 to 2.13131e-005
Heightened Def Con from 2.13131e-005 to 2.13131e-005
Heightened Def Con from 2.13131e-005 to 2.13131e-005
Heightened Def Con from 2.13131e-005 to 2.13131e-005
Heightened Def Con from 2.13131e-005 to 2.13131e-005
Heightened Def Con from 2.13131e-005 to 2.13131e-005
Heightened Def Con from 2.13131e-005 to 2.13131e-005
Heightened Def Con from 2.13131e-005 to 2.13131e-005
Heightened Def Con from 2.13131e-005 to 2.13131e-005
Heightened Def Con from 2.13131e-005 to 2.13131e-005
Heightened Def Con from 2.13131e-005 to 2.13131e-005
Heightened Def Con from 2.13131e-005 to 2.13131e-005
Heightened Def Con from 2.13131e-005 to 2.13131e-005
Heightened Def Con from 2.13131e-005 to 2.13131e-005
Heightened Def Con from 2.13131e-005 to 2.13131e-005
Heightened Def Con from 2.13131e-005 to 2.13131e-005
Heightened Def Con from 2.13131e-005 to 2.13131e-005
Heightened Def Con from 2.13131e-005 to 2.13131e-005
Heightened Def Con from 2.13131e-005 +to 2.13131e-005
Heightened Def Con from 2.13131e-005 to 2.13131e-005
Heightened Def Con from 2.13131e-005 to 2.13131e-005
Heightened Def Con from 2.13131e-005 to 2.13131e-005
Heightened Def Con from 2.13131e-005 to 2.13131e-005
Heightened Def Con from 2.13131e-005 to 2.13131e-005
Heightened Def Con from 2.13131e-005 to 2.13131e-005
Heightened Def Con from 2.13131e-005 to 2.13131e-005
Heightened Def Con from 2.13131e-005 to 2.13131e-005
Heightened Def Con from 2.13131e-005 to 2.13131e-005
Heightened Def Con from 2.13131e-005 to 2.13131e-005
Heightened Def Con from 2.13131e-005 to 2.13131e-005
Heightened Def Con from 2.13131e-005 to 2.13131e-005
Heightened Def Con from 2.13131e-005 to 2.13131e-005
Heightened Def Con from 2.13131e-005 to 2.13131e-005
Heightened Def Con from 2.13131e-005 to 2.13131e-005
Heightened Def Con from 2.13131e-005 to 2.13131e-005
Heightened Def Con from 2.13131e-005 to 2.13131e-005
Heightened Def Con from 2.13131e-005 to 2.13131e-005
Heightened Def Con from 2.13131e-005 to 2.13131e-005
Heightened Def Con from 2.13131e-005 to 2.13131e-005
Heightened Def Con from 2.13131e-005 to 2.13131e-005
Heightened Def Con from 2.13131e-005 to 2.13131e-005
Heightened Def Con from 2.13131e-005 to 2.13131e-005
Heightened Def Con from 2.13131e-005 to 2.13131e-005
Heightened Def Con from 2.13132e-005 to 2.13132e-005
Heightened Def Con from 2.13132e-005 to 2.13132e-005
Heightened Def Con from 2.13132e-005 to 2.13132e-005
Heightened Def Con from 2.13132e-005 to 2.13132e-005
Heightened Def Con from 2.13132e-005 to 2.13132e-005
Heightened Def Con from 2.13132e-005 to 2.13132e-005
Heightened Def Con from 2.13132e-005 to 2.13132e-005
Heightened Def Con from 2.13132e-005 +to 2.13132e-005
Heightened Def Con from 2.13132e-005 to 2.13132e-005
Heightened Def Con from 2.13132e-005 to 2.13132e-005
Heightened Def Con from 2.13132e-005 to 2.13132e-005
Heightened Def Con from 2.13132e-005 to 2.13132e-005
Heightened Def Con from 2.13132e-005 to 2.13132e-005
Heightened Def Con from 2.13132e-005 to 2.13132e-005
Heightened Def Con from 2.13132e-005 to 2.13132e-005
Heightened Def Con from 2.13132e-005 to 2.13132e-005
Heightened Def Con from 2.13132e-005 to 2.13132e-005
Heightened Def Con from 2.13132e-005 to 2.13132e-005
Heightened Def Con from 2.13132e-005 to 2.13132e-005
Heightened Def Con from 2.13132e-005 to 2.13132e-005
Heightened Def Con from 2.13132e-005 to 2.13132e-005
Heightened Def Con from 2.13132e-005 to 2.13132e-005
Heightened Def Con from 2.13132e-005 to 2.13132e-005
Heightened Def Con from 2.13132e-005 to 2.13132e-005
Heightened Def Con from 2.13132e-005 to 2.13132e-005
Heightened Def Con from 2.13132e-005 to 2.13132e-005
Heightened Def Con from 2.13132e-005 to 2.13132e-005
Heightened Def Con from 2.13132e-005 to 2.13132e-005
Heightened Def Con from 2.13132e-005 to 2.13132e-005
Heightened Def Con from 2.13132e-005 to 2.13133e-005
Heightened Def Con from 2.13133e-005 to 2.13213e-005
Heightened Def Con from 2.14447e-005 to 2.14487e-005
Heightened Def Con from 2.14967e-005 to 2.15027e-005
Heightened Def Con from 2.18318e-005 to 2.18339e-005
Heightened Def Con from 2.18341e-005 to 2.18354e-005
Heightened Def Con from 2.18354e-005 to 2.18363e-005
Heightened Def Con from 2.18386e-005 to 2.18426e-005
Heightened Def Con from 2.38505e-005 to 2.38545e-005
Heightened Def Con from 2.38611e-005 to 2.38651e-005
Heightened Def Con from 2.38703e-005 to 2.38753e-005
Heightened Def Con from 2.40251e-005 to 2.40381e-005
Heightened Def Con from 2.40476e-005 to 2.40497e-005
Heightened Def Con from 2.40498e-005 to 2.40569e-005
Heightened Def Con from 2.40574e-005 to 2.40574e-005
Heightened Def Con from 2.40574e-005 to 2.40604e-005
Heightened Def Con from 2.4211e-005 to 2.4211e-005
Heightened Def Con from 2.4211e-005 to 2.4211e-005
Heightened Def Con from 2.4211e-005 to 2.42111e-005
Heightened Def Con from 2.42114e-005 to 2.42114e-005
Heightened Def Con from 2.42114e-005 to 2.42114e-005
Heightened Def Con from 2.42114e-005 to 2.42114e-005
Heightened Def Con from 2.42115e-005 to 2.42115e-005
Heightened Def Con from 2.42115e-005 to 2.42115e-005
Heightened Def Con from 2.42115e-005 to 2.42115e-005
Heightened Def Con from 2.42116e-005 to 2.42116e-005
Heightened Def Con from 2.42117e-005 to 2.42117e-005
Heightened Def Con from 2.42117e-005 to 2.42117e-005
Heightened Def Con from 2.42121e-005 to 2.42122e-005
Heightened Def Con from 2.42126e-005 to 2.42126e-005
Heightened Def Con from 2.42126e-005 to 2.42129e-005
Heightened Def Con from 2.42129e-005 to 2.42239e-005
Heightened Def Con from 2.42516e-005 to 2.42546e-005
Heightened Def Con from 2.47205e-005 to 2.47205e-005
Heightened Def Con from 2.47205e-005 to 2.47205e-005
Heightened Def Con from 2.47205e-005 to 2.47205e-005
Heightened Def Con from 2.47205e-005 to 2.47206e-005
Heightened Def Con from 2.47206e-005 to 2.47206e-005
Heightened Def Con from 2.47206e-005 to 2.47206e-005
Heightened Def Con from 2.47206e-005 to 2.47206e-005
Heightened Def Con from 2.47206e-005 to 2.47206e-005
Heightened Def Con from 2.47206e-005 to 2.47206e-005
Heightened Def Con from 2.47206e-005 to 2.47206e-005
Heightened Def Con from 2.47206e-005 to 2.47206e-005
Heightened Def Con from 2.47206e-005 to 2.47206e-005
Heightened Def Con from 2.47206e-005 to 2.47206e-005
Heightened Def Con from 2.47206e-005 to 2.47206e-005
Heightened Def Con from 2.47206e-005 to 2.47206e-005
Heightened Def Con from 2.47206e-005 to 2.47206e-005
Heightened Def Con from 2.47206e-005 to 2.47206e-005
Heightened Def Con from 2.47206e-005 to 2.47206e-005
Heightened Def Con from 2.47206e-005 to 2.47206e-005
Heightened Def Con from 2.47206e-005 to 2.47206e-005
Heightened Def Con from 2.47206e-005 to 2.47206e-005
Heightened Def Con from 2.47206e-005 to 2.47206e-005
Heightened Def Con from 2.47206e-005 to 2.47206e-005
Heightened Def Con from 2.47206e-005 to 2.47206e-005
Heightened Def Con from 2.47206e-005 to 2.47206e-005
Heightened Def Con from 2.47206e-005 to 2.47206e-005
Heightened Def Con from 2.47206e-005 to 2.47206e-005
Heightened Def Con from 2.47206e-005 to 2.47206e-005
Heightened Def Con from 2.47206e-005 to 2.47206e-005
Heightened Def Con from 2.47206e-005 to 2.47206e-005
Heightened Def Con from 2.47206e-005 to 2.47206e-005
Heightened Def Con from 2.47206e-005 to 2.47206e-005
Heightened Def Con from 2.47206e-005 to 2.47206e-005
Heightened Def Con from 2.47206e-005 to 2.47206e-005
Heightened Def Con from 2.47206e-005 to 2.47206e-005
Heightened Def Con from 2.47206e-005 to 2.47206e-005
Heightened Def Con from 2.47206e-005 to 2.47206e-005
Heightened Def Con from 2.47206e-005 to 2.47206e-005
Heightened Def Con from 2.47206e-005 to 2.47206e-005
Heightened Def Con from 2.47206e-005 to 2.47206e-005
Heightened Def Con from 2.47206e-005 to 2.47206e-005
Heightened Def Con from 2.47206e-005 to 2.47206e-005
Heightened Def Con from 2.47206e-005 to 2.47206e-005
Heightened Def Con from 2.47206e-005 to 2.47206e-005
Heightened Def Con from 2.47206e-005 to 2.47207e-005
Heightened Def Con from 2.47207e-005 to 2.47207e-005
Heightened Def Con from 2.47207e-005 to 2.47207e-005
[...]
Heightened Def Con from 5.57274e-005 to 5.57274e-005
Heightened Def Con from 5.57274e-005 to 5.57274e-005
Heightened Def Con from 5.57274e-005 to 5.57274e-005
Heightened Def Con from 5.57274e-005 to 5.57274e-005
Heightened Def Con from 5.57274e-005 to 5.57274e-005
Heightened Def Con from 5.57275e-005 to 5.57275e-005
Heightened Def Con from 5.57275e-005 to 5.57275e-005
Heightened Def Con from 5.57276e-005 to 5.57276e-005
Heightened Def Con from 5.57276e-005 to 5.57276e-005
Heightened Def Con from 5.57276e-005 to 5.57276e-005
Heightened Def Con from 5.57276e-005 to 5.57276e-005
Heightened Def Con from 5.57276e-005 to 5.57276e-005
Heightened Def Con from 5.57276e-005 to 5.57276e-005
Heightened Def Con from 5.57276e-005 to 5.57276e-005
Heightened Def Con from 5.57276e-005 to 5.57276e-005
Heightened Def Con from 5.57276e-005 to 5.57276e-005
Heightened Def Con from 5.57276e-005 to 5.57276e-005
Heightened Def Con from 5.57276e-005 to 5.57276e-005
Heightened Def Con from 5.57276e-005 to 5.57276e-005
Heightened Def Con from 5.57276e-005 to 5.57276e-005
Heightened Def Con from 5.57276e-005 to 5.57276e-005
Heightened Def Con from 5.57276e-005 to 5.57276e-005
Heightened Def Con from 5.57276e-005 to 5.57276e-005
Heightened Def Con from 5.57276e-005 to 5.57276e-005
Heightened Def Con from 5.57276e-005 to 5.57276e-005
Heightened Def Con from 5.57276e-005 to 5.57276e-005
Heightened Def Con from 5.57276e-005 to 5.57276e-005
Heightened Def Con from 5.57276e-005 to 5.57276e-005
Heightened Def Con from 5.57276e-005 to 5.57276e-005
Heightened Def Con from 5.57276e-005 to 5.57276e-005
Heightened Def Con from 5.57276e-005 to 5.57285e-005
Heightened Def Con from 5.57758e-005 to 5.57808e-005
Heightened Def Con from 5.69553e-005 to 5.69593e-005
Heightened Def Con from 5.79379e-005 to 5.79379e-005
Heightened Def Con from 5.7938e-005 to 5.79385e-005
Heightened Def Con from 5.79385e-005 to 5.79445e-005
Heightened Def Con from 5.79445e-005 to 5.79445e-005
Heightened Def Con from 5.79445e-005 to 5.79445e-005
Heightened Def Con from 5.79445e-005 to 5.79445e-005
Heightened Def Con from 5.79445e-005 to 5.79445e-005
Heightened Def Con from 5.79445e-005 to 5.79445e-005
Heightened Def Con from 5.79445e-005 to 5.79445e-005
Heightened Def Con from 5.79445e-005 to 5.79445e-005
Heightened Def Con from 5.79445e-005 to 5.79445e-005
Heightened Def Con from 5.79445e-005 to 5.79445e-005
Heightened Def Con from 5.79446e-005 to 5.79446e-005
Heightened Def Con from 5.79447e-005 to 5.79447e-005
Heightened Def Con from 5.79447e-005 to 5.79447e-005
Heightened Def Con from 5.79447e-005 to 5.79447e-005
Heightened Def Con from 5.79448e-005 to 5.79452e-005
Heightened Def Con from 5.79485e-005 to 5.79565e-005
Heightened Def Con from 5.79584e-005 to 5.79585e-005
Heightened Def Con from 5.79585e-005 to 5.79604e-005
Heightened Def Con from 5.8018e-005 to 5.8021e-005
Heightened Def Con from 5.80977e-005 to 5.80977e-005
Heightened Def Con from 5.80977e-005 to 5.80977e-005
Heightened Def Con from 5.80977e-005 to 5.80977e-005
Heightened Def Con from 5.80977e-005 to 5.80977e-005
Heightened Def Con from 5.80977e-005 to 5.80977e-005
Heightened Def Con from 5.80977e-005 to 5.80977e-005
Heightened Def Con from 5.80977e-005 to 5.80977e-005
Heightened Def Con from 5.80977e-005 to 5.80977e-005
Heightened Def Con from 5.80977e-005 to 5.80977e-005
Heightened Def Con from 5.80977e-005 to 5.80977e-005
Heightened Def Con from 5.80977e-005 to 5.80977e-005
Heightened Def Con from 5.80977e-005 to 5.80977e-005
Heightened Def Con from 5.80977e-005 to 5.80977e-005
Heightened Def Con from 5.80977e-005 to 5.80977e-005
Heightened Def Con from 5.80977e-005 to 5.80977e-005
Heightened Def Con from 5.80978e-005 to 5.80978e-005
Heightened Def Con from 5.80978e-005 to 5.80978e-005
Heightened Def Con from 5.80978e-005 to 5.80978e-005
Heightened Def Con from 5.80978e-005 to 5.80978e-005
Heightened Def Con from 5.80978e-005 to 5.80978e-005
Heightened Def Con from 5.80978e-005 to 5.80978e-005
Heightened Def Con from 5.80978e-005 to 5.80978e-005
Heightened Def Con from 5.80978e-005 to 5.80978e-005
Heightened Def Con from 5.80978e-005 to 5.80978e-005
Heightened Def Con from 5.80978e-005 to 5.80978e-005
Heightened Def Con from 5.80978e-005 to 5.80978e-005
Heightened Def Con from 5.80978e-005 to 5.80978e-005
Heightened Def Con from 5.80978e-005 to 5.80978e-005
Heightened Def Con from 5.80978e-005 to 5.80978e-005
Heightened Def Con from 5.80978e-005 to 5.80978e-005
Heightened Def Con from 5.80978e-005 to 5.80978e-005
Heightened Def Con from 5.80978e-005 to 5.80978e-005
Heightened Def Con from 5.80978e-005 to 5.80978e-005
Heightened Def Con from 5.80978e-005 to 5.80978e-005
Heightened Def Con from 5.80978e-005 to 5.80978e-005
Heightened Def Con from 5.80978e-005 to 5.80978e-005
Heightened Def Con from 5.80978e-005 to 5.80978e-005
Heightened Def Con from 5.80978e-005 to 5.80978e-005
Heightened Def Con from 5.80978e-005 to 5.80978e-005
Heightened Def Con from 5.80978e-005 to 5.80978e-005
Heightened Def Con from 5.80978e-005 to 5.80978e-005
Heightened Def Con from 5.80978e-005 to 5.80978e-005
Heightened Def Con from 5.80978e-005 to 5.80978e-005
Heightened Def Con from 5.80978e-005 to 5.80978e-005
Heightened Def Con from 5.80978e-005 to 5.80978e-005
Heightened Def Con from 5.80978e-005 to 5.80978e-005
Heightened Def Con from 5.80978e-005 to 5.80978e-005
Heightened Def Con from 5.80978e-005 to 5.80978e-005
Heightened Def Con from 5.80978e-005 to 5.80978e-005
Heightened Def Con from 5.80978e-005 to 5.80978e-005
Heightened Def Con from 5.80978e-005 to 5.80978e-005
Heightened Def Con from 5.80978e-005 to 5.80978e-005
Heightened Def Con from 5.80978e-005 to 5.80978e-005
Heightened Def Con from 5.80978e-005 to 5.80978e-005
Heightened Def Con from 5.80978e-005 to 5.80978e-005
Heightened Def Con from 5.80978e-005 to 5.80978e-005
Heightened Def Con from 5.80978e-005 to 5.80978e-005
Heightened Def Con from 5.80978e-005 to 5.80978e-005
Heightened Def Con from 5.80978e-005 to 5.80978e-005
Heightened Def Con from 5.80978e-005 to 5.80978e-005
Heightened Def Con from 5.80978e-005 to 5.80978e-005
Heightened Def Con from 5.80978e-005 to 5.80978e-005
Heightened Def Con from 5.80978e-005 to 5.80978e-005
Heightened Def Con from 5.80978e-005 to 5.80978e-005
Heightened Def Con from 5.80978e-005 to 5.80978e-005
Heightened Def Con from 5.80978e-005 to 5.80978e-005
Heightened Def Con from 5.80978e-005 to 5.80978e-005
Heightened Def Con from 5.80978e-005 to 5.80978e-005
Heightened Def Con from 5.80978e-005 to 5.80978e-005
Heightened Def Con from 5.80978e-005 to 5.80978e-005
Heightened Def Con from 5.80978e-005 to 5.80978e-005
Heightened Def Con from 5.80978e-005 to 5.80978e-005
Heightened Def Con from 5.80978e-005 to 5.80978e-005
Heightened Def Con from 5.80978e-005 to 5.80978e-005
Heightened Def Con from 5.80978e-005 to 5.80978e-005
Heightened Def Con from 5.80978e-005 to 5.80978e-005
Heightened Def Con from 5.80978e-005 to 5.80978e-005
Heightened Def Con from 5.80978e-005 to 5.80978e-005
Heightened Def Con from 5.80978e-005 to 5.80978e-005
Heightened Def Con from 5.80978e-005 to 5.80978e-005
Heightened Def Con from 5.80978e-005 to 5.80978e-005
Heightened Def Con from 5.80978e-005 to 5.80978e-005
Heightened Def Con from 5.80978e-005 to 5.80978e-005
Heightened Def Con from 5.80978e-005 to 5.80978e-005
Heightened Def Con from 5.80978e-005 to 5.80978e-005
Heightened Def Con from 5.80978e-005 to 5.80978e-005
Heightened Def Con from 5.80978e-005 to 5.80978e-005
Heightened Def Con from 5.80978e-005 to 5.80978e-005
Heightened Def Con from 5.80979e-005 to 5.80979e-005
Heightened Def Con from 5.80979e-005 to 5.80979e-005
Heightened Def Con from 5.80979e-005 to 5.80979e-005
Heightened Def Con from 5.80979e-005 to 5.80979e-005
Heightened Def Con from 5.80979e-005 to 5.80979e-005
Heightened Def Con from 5.80979e-005 to 5.80979e-005
Heightened Def Con from 5.80979e-005 to 5.80979e-005
Heightened Def Con from 5.80979e-005 to 5.80979e-005
Heightened Def Con from 5.80979e-005 to 5.80979e-005
Heightened Def Con from 5.80979e-005 to 5.80979e-005
Heightened Def Con from 5.80979e-005 to 5.80979e-005
Heightened Def Con from 5.80979e-005 to 5.80979e-005
Heightened Def Con from 5.80979e-005 to 5.80979e-005
Heightened Def Con from 5.80979e-005 to 5.80979e-005
Heightened Def Con from 5.80979e-005 to 5.80979e-005
Heightened Def Con from 5.80979e-005 to 5.80979e-005
Heightened Def Con from 5.80979e-005 to 5.80979e-005
Heightened Def Con from 5.80979e-005 to 5.80979e-005
Heightened Def Con from 5.80979e-005 to 5.80979e-005
Heightened Def Con from 5.80979e-005 to 5.80979e-005
Heightened Def Con from 5.80979e-005 to 5.80979e-005
Heightened Def Con from 5.80979e-005 to 5.80979e-005
Heightened Def Con from 5.80979e-005 to 5.80979e-005
Heightened Def Con from 5.80979e-005 to 5.80979e-005
Heightened Def Con from 5.80979e-005 to 5.80979e-005
Heightened Def Con from 5.80979e-005 to 5.80979e-005
Heightened Def Con from 5.80979e-005 to 5.80979e-005
Heightened Def Con from 5.80979e-005 to 5.80979e-005
Heightened Def Con from 5.80979e-005 to 5.80979e-005
Heightened Def Con from 5.80979e-005 to 5.80979e-005
Heightened Def Con from 5.80979e-005 to 5.80979e-005
Heightened Def Con from 5.80979e-005 to 5.80979e-005
Heightened Def Con from 5.80979e-005 to 5.80979e-005
Heightened Def Con from 5.80979e-005 to 5.80979e-005
Heightened Def Con from 5.80979e-005 to 5.80979e-005
Heightened Def Con from 5.80979e-005 to 5.80979e-005
Heightened Def Con from 5.80979e-005 to 5.80979e-005
Heightened Def Con from 5.80979e-005 to 5.80979e-005
Heightened Def Con from 5.80979e-005 to 5.80979e-005
Heightened Def Con from 5.80979e-005 to 5.80979e-005
Heightened Def Con from 5.80979e-005 to 5.80979e-005
Heightened Def Con from 5.80979e-005 to 5.80979e-005
Heightened Def Con from 5.80979e-005 to 5.80979e-005
Heightened Def Con from 5.80979e-005 to 5.80979e-005
Heightened Def Con from 5.80979e-005 to 5.80979e-005
Heightened Def Con from 5.80979e-005 to 5.80979e-005
Heightened Def Con from 5.80979e-005 to 5.80979e-005
Heightened Def Con from 5.80979e-005 to 5.80979e-005
Heightened Def Con from 5.80979e-005 to 5.80979e-005
Heightened Def Con from 5.80979e-005 to 5.80979e-005
Heightened Def Con from 5.80979e-005 to 5.80979e-005
Heightened Def Con from 5.80979e-005 to 5.80979e-005
Heightened Def Con from 5.80979e-005 to 5.80979e-005
Heightened Def Con from 5.80979e-005 to 5.80979e-005
Heightened Def Con from 5.80979e-005 to 5.80979e-005
Heightened Def Con from 5.80979e-005 to 5.80979e-005
Heightened Def Con from 5.80979e-005 to 5.80979e-005
Heightened Def Con from 5.80979e-005 to 5.80979e-005
Heightened Def Con from 5.80979e-005 to 5.80979e-005
Heightened Def Con from 5.80979e-005 to 5.80979e-005
Heightened Def Con from 5.80979e-005 to 5.80979e-005
Heightened Def Con from 5.80979e-005 to 5.80979e-005
Heightened Def Con from 5.80979e-005 to 5.80979e-005
Heightened Def Con from 5.80979e-005 to 5.80979e-005
Heightened Def Con from 5.80979e-005 to 5.80979e-005
Heightened Def Con from 5.80979e-005 to 5.80979e-005
Heightened Def Con from 5.80979e-005 to 5.80979e-005
Heightened Def Con from 5.80979e-005 to 5.80979e-005
Heightened Def Con from 5.80979e-005 to 5.80979e-005
Heightened Def Con from 5.80979e-005 to 5.80979e-005
Heightened Def Con from 5.80979e-005 to 5.80979e-005
Heightened Def Con from 5.80979e-005 to 5.80979e-005
Heightened Def Con from 5.80979e-005 to 5.80979e-005
Heightened Def Con from 5.80979e-005 to 5.80979e-005
Heightened Def Con from 5.80979e-005 to 5.80979e-005
Heightened Def Con from 5.80979e-005 to 5.80979e-005
Heightened Def Con from 5.80979e-005 to 5.80979e-005
Heightened Def Con from 5.80979e-005 to 5.80979e-005
Heightened Def Con from 5.80979e-005 to 5.80979e-005
Heightened Def Con from 5.80979e-005 to 5.80979e-005
Heightened Def Con from 5.80979e-005 to 5.80979e-005
Heightened Def Con from 5.80979e-005 to 5.80979e-005
Heightened Def Con from 5.80979e-005 to 5.80979e-005
Heightened Def Con from 5.80979e-005 to 5.80979e-005
Heightened Def Con from 5.80979e-005 to 5.8098e-005
Heightened Def Con from 5.8098e-005 to 5.8098e-005
Heightened Def Con from 5.8098e-005 to 5.8098e-005
Heightened Def Con from 5.8098e-005 to 5.8098e-005
Heightened Def Con from 5.8098e-005 to 5.8098e-005
Heightened Def Con from 5.8098e-005 to 5.8098e-005
Heightened Def Con from 5.8098e-005 to 5.8098e-005
Heightened Def Con from 5.8098e-005 to 5.8098e-005
Heightened Def Con from 5.8098e-005 to 5.8098e-005
Heightened Def Con from 5.8098e-005 to 5.8098e-005
Heightened Def Con from 5.8098e-005 to 5.8098e-005
Heightened Def Con from 5.8098e-005 to 5.8098e-005
Heightened Def Con from 5.8098e-005 to 5.8098e-005
Heightened Def Con from 5.8098e-005 to 5.8098e-005
Heightened Def Con from 5.8098e-005 to 5.8098e-005
Heightened Def Con from 5.8098e-005 to 5.8098e-005
Heightened Def Con from 5.8098e-005 to 5.8098e-005
Heightened Def Con from 5.8098e-005 to 5.8098e-005
Heightened Def Con from 5.8098e-005 to 5.8098e-005
Heightened Def Con from 5.8098e-005 to 5.8098e-005
Heightened Def Con from 5.8098e-005 to 5.8098e-005
Heightened Def Con from 5.8098e-005 to 5.8098e-005
Heightened Def Con from 5.8098e-005 to 5.8098e-005
Heightened Def Con from 5.8098e-005 to 5.8098e-005
Heightened Def Con from 5.8098e-005 to 5.8098e-005
Heightened Def Con from 5.8098e-005 to 5.8098e-005
Heightened Def Con from 5.8098e-005 to 5.8098e-005
Heightened Def Con from 5.8098e-005 to 5.8098e-005
Heightened Def Con from 5.8098e-005 to 5.8098e-005
Heightened Def Con from 5.8098e-005 to 5.8098e-005
Heightened Def Con from 5.8098e-005 to 5.8098e-005
Heightened Def Con from 5.8098e-005 to 5.8098e-005
Heightened Def Con from 5.8098e-005 to 5.8098e-005
Heightened Def Con from 5.8098e-005 to 5.8098e-005
Heightened Def Con from 5.8098e-005 to 5.8098e-005
Heightened Def Con from 5.8098e-005 to 5.8098e-005
Heightened Def Con from 5.8098e-005 to 5.8098e-005
Heightened Def Con from 5.8098e-005 to 5.8098e-005
Heightened Def Con from 5.8098e-005 to 5.8098e-005
Heightened Def Con from 5.8098e-005 to 5.8098e-005
Heightened Def Con from 5.8098e-005 to 5.8098e-005
Heightened Def Con from 5.8098e-005 to 5.8098e-005
Heightened Def Con from 5.8098e-005 to 5.8098e-005
Heightened Def Con from 5.8098e-005 to 5.8098e-005
Heightened Def Con from 5.8098e-005 to 5.8098e-005
Heightened Def Con from 5.8098e-005 to 5.8098e-005
Heightened Def Con from 5.8098e-005 to 5.8098e-005
Heightened Def Con from 5.8098e-005 to 5.8098e-005
Heightened Def Con from 5.8098e-005 to 5.8098e-005
Heightened Def Con from 5.8098e-005 to 5.8098e-005
Heightened Def Con from 5.8098e-005 to 5.8098e-005
Heightened Def Con from 5.8098e-005 to 5.8098e-005
Heightened Def Con from 5.8098e-005 to 5.8098e-005
Heightened Def Con from 5.8098e-005 to 5.8098e-005
Heightened Def Con from 5.80981e-005 to 5.80981e-005
Heightened Def Con from 5.80981e-005 to 5.80981e-005
Heightened Def Con from 5.80981e-005 to 5.80981e-005
Heightened Def Con from 5.80981e-005 to 5.80981e-005
Heightened Def Con from 5.80981e-005 to 5.80981e-005
Heightened Def Con from 5.80981e-005 to 5.80981e-005
Heightened Def Con from 5.80981e-005 to 5.80981e-005
Heightened Def Con from 5.80981e-005 to 5.80981e-005
Heightened Def Con from 5.80981e-005 to 5.80981e-005
Heightened Def Con from 5.80981e-005 to 5.80981e-005
Heightened Def Con from 5.80981e-005 to 5.80981e-005
Heightened Def Con from 5.80981e-005 to 5.80981e-005
Heightened Def Con from 5.80981e-005 to 5.80981e-005
Heightened Def Con from 5.80981e-005 to 5.80981e-005
Heightened Def Con from 5.80981e-005 to 5.80981e-005
Heightened Def Con from 5.80981e-005 to 5.80981e-005
Heightened Def Con from 5.80981e-005 to 5.80981e-005
Heightened Def Con from 5.80981e-005 to 5.80981e-005
Heightened Def Con from 5.80981e-005 to 5.80981e-005
Heightened Def Con from 5.80981e-005 to 5.80981e-005
Heightened Def Con from 5.80981e-005 to 5.80981e-005
Heightened Def Con from 5.80981e-005 to 5.80981e-005
Heightened Def Con from 5.80981e-005 to 5.80981e-005
Heightened Def Con from 5.80981e-005 to 5.80981e-005
Heightened Def Con from 5.80981e-005 to 5.80981e-005
Heightened Def Con from 5.80981e-005 to 5.80981e-005
Heightened Def Con from 5.80981e-005 to 5.80981e-005
Heightened Def Con from 5.80981e-005 to 5.80981e-005
Heightened Def Con from 5.80981e-005 to 5.80981e-005
Heightened Def Con from 5.80981e-005 to 5.80981e-005
Heightened Def Con from 5.80981e-005 to 5.80981e-005
Heightened Def Con from 5.80981e-005 to 5.80981e-005
Heightened Def Con from 5.80981e-005 to 5.80981e-005
Heightened Def Con from 5.80981e-005 to 5.80981e-005
Heightened Def Con from 5.80981e-005 to 5.80981e-005
Heightened Def Con from 5.80981e-005 to 5.80981e-005
Heightened Def Con from 5.80981e-005 to 5.80981e-005
Heightened Def Con from 5.80981e-005 to 5.80981e-005
Heightened Def Con from 5.80981e-005 to 5.80981e-005
Heightened Def Con from 5.80981e-005 to 5.80981e-005
Heightened Def Con from 5.80981e-005 to 5.80981e-005
Heightened Def Con from 5.80981e-005 to 5.80981e-005
Heightened Def Con from 5.80981e-005 to 5.80981e-005
Heightened Def Con from 5.80981e-005 to 5.80981e-005
Heightened Def Con from 5.80981e-005 to 5.80981e-005
Heightened Def Con from 5.80981e-005 to 5.80981e-005
Heightened Def Con from 5.80981e-005 to 5.80981e-005
Heightened Def Con from 5.80981e-005 to 5.80981e-005
Heightened Def Con from 5.80981e-005 to 5.80981e-005
Heightened Def Con from 5.80981e-005 to 5.80981e-005
Heightened Def Con from 5.80981e-005 to 5.80981e-005
Heightened Def Con from 5.80981e-005 to 5.80981e-005
Heightened Def Con from 5.80981e-005 to 5.80981e-005
Heightened Def Con from 5.80981e-005 to 5.80981e-005
Heightened Def Con from 5.80981e-005 to 5.80981e-005
Heightened Def Con from 5.80981e-005 to 5.80981e-005
Heightened Def Con from 5.80981e-005 to 5.80981e-005
Heightened Def Con from 5.80981e-005 to 5.80981e-005
Heightened Def Con from 5.80981e-005 to 5.80981e-005
Heightened Def Con from 5.80981e-005 to 5.80981e-005
Heightened Def Con from 5.80981e-005 to 5.80981e-005
Heightened Def Con from 5.80981e-005 to 5.80981e-005
Heightened Def Con from 5.80981e-005 to 5.80981e-005
Heightened Def Con from 5.80981e-005 to 5.80981e-005
Heightened Def Con from 5.80981e-005 to 5.80981e-005
Heightened Def Con from 5.80981e-005 to 5.80981e-005
Heightened Def Con from 5.80981e-005 to 5.80981e-005
Heightened Def Con from 5.80981e-005 to 5.80981e-005
Heightened Def Con from 5.80981e-005 to 5.80981e-005
Heightened Def Con from 5.80981e-005 to 5.80981e-005
Heightened Def Con from 5.80981e-005 to 5.80981e-005
Heightened Def Con from 5.80981e-005 to 5.80982e-005
Heightened Def Con from 5.80982e-005 to 5.80982e-005
Heightened Def Con from 5.80982e-005 to 5.80982e-005
Heightened Def Con from 5.80982e-005 to 5.80982e-005
Heightened Def Con from 5.80982e-005 to 5.80982e-005
Heightened Def Con from 5.80982e-005 to 5.80982e-005
Heightened Def Con from 5.80982e-005 to 5.80982e-005
Heightened Def Con from 5.80982e-005 to 5.80982e-005
Heightened Def Con from 5.80982e-005 to 5.80982e-005
Heightened Def Con from 5.80982e-005 to 5.80982e-005
Heightened Def Con from 5.80982e-005 to 5.80982e-005
Heightened Def Con from 5.80982e-005 to 5.80982e-005
Heightened Def Con from 5.80982e-005 to 5.80982e-005
Heightened Def Con from 5.80982e-005 to 5.80982e-005
Heightened Def Con from 5.80982e-005 to 5.80982e-005
Heightened Def Con from 5.80982e-005 to 5.80982e-005
Heightened Def Con from 5.80982e-005 to 5.80982e-005
Heightened Def Con from 5.80982e-005 to 5.80983e-005
Heightened Def Con from 5.80983e-005 to 5.81063e-005
Heightened Def Con from 5.82856e-005 to 5.82906e-005
Heightened Def Con from 5.86161e-005 to 5.86191e-005
Heightened Def Con from 5.86201e-005 to 5.86214e-005
Heightened Def Con from 5.86214e-005 to 5.86223e-005
Heightened Def Con from 5.97352e-005 ++++++++++++++++++++++++++++++++++++++++++++++++++Fatal Error: Analysis:  Time step too small; time = 5.97352e-005, timestep = 1.25e-019: trouble with node "u7:_gd_template:_input_stage:_lin_lpf:_cmp:outp"

