LTspice 24.0.12 for Windows
Circuit: * C:\Users\---\Desktop\DCE\dce-g5-proyecto_integrador\Checkpoint 5\Buck_lazo_cerrado\Buck-lazo-cerrado.asc
Start Time: Fri Dec  6 17:29:15 2024
solver = Normal
Maximum thread count: 4
tnom = 27
temp = 27
method = modified trap
abstol = 1e-11
noOpIter = 1
WARNING: Less than two connections to node -vcc3.  This node is used by v10.
Instance "m:u9:_gd_template:_ho_stage:_ho_pmos": Length shorter than recommended for a level 1 MOSFET.
Instance "m:u9:_gd_template:_ho_stage:_ho_nmos": Length shorter than recommended for a level 1 MOSFET.
Instance "m:u9:_gd_template:_lo_stage:_lo_pmos": Length shorter than recommended for a level 1 MOSFET.
Instance "m:u9:_gd_template:_lo_stage:_lo_nmos": Length shorter than recommended for a level 1 MOSFET.
Direct Newton iteration for .op point skipped.
Starting Gmin stepping
Gmin = 10
vernier = 0.5
vernier = 0.25
vernier = 0.125
Gmin = 5.49741
vernier = 0.0625
vernier = 0.03125
vernier = 0.015625
vernier = 0.0078125
Gmin = 5.43357
vernier = 0.00390625
vernier = 0.00195312
vernier = 0.000976562
vernier = 0.000488281
Gmin = 5.42761
Gmin = 0
Gmin stepping failed

Starting source stepping with srcstepmethod=0
Source Step = 3.0303%
Source Step = 33.3333%
Source Step = 50.1894%
vernier = 0.015625
Source Step = 50.0237%
Starting source stepping with srcstepmethod=1
Source Step = 3.0303%
Source Step = 33.3333%
Source Step = 50.1894%
vernier = 0.015625
Source stepping failed

Pseudo Transient failed in finding the operating point at 5.00977 µs.
Trouble finding operating point....skipping operating point for Transient analysis.
Changing Tseed to 2.44141e-10
Changing Tseed to 2.44141e-12
Changing Tseed to 2.44141e-09
Changing Tseed to 2.44141e-13
Changing Tseed to 2.44141e-08
Changing Tseed to 2.44141e-14
to 4.88281e-14
Heightened Def Con from 2.95656e-11 to 6.02957e-09
Heightened Def Con from 9.58964e-08 to 9.98964e-08
Heightened Def Con from 7.58442e-07 to 7.58442e-07
Heightened Def Con from 7.58448e-07 to 7.58448e-07
Heightened Def Con from 7.58453e-07 to 7.58457e-07
Heightened Def Con from 7.58515e-07 to 7.58515e-07
Heightened Def Con from 7.58515e-07 to 7.58515e-07
Heightened Def Con from 7.58525e-07 to 7.58525e-07
Heightened Def Con from 7.58602e-07 to 7.59477e-07
Heightened Def Con from 1.1404e-06 to 1.1404e-06
Heightened Def Con from 1.14109e-06 to 1.14109e-06
Heightened Def Con from 1.14145e-06 to 1.14332e-06
Heightened Def Con from 1.6588e-06 to 1.65992e-06
Heightened Def Con from 1.66033e-06 to 1.66038e-06
Heightened Def Con from 1.66042e-06 to 1.66143e-06
Heightened Def Con from 1.66151e-06 to 1.66179e-06
Heightened Def Con from 1.66179e-06 to 1.66579e-06
Heightened Def Con from 1.93929e-06 to 1.94329e-06
Heightened Def Con from 5.48247e-06 to 5.48547e-06
Heightened Def Con from 1.27274e-05 to 1.27314e-05
Heightened Def Con from 1.28021e-05 to 1.28051e-05
Heightened Def Con from 1.36715e-05 to 1.36755e-05
Heightened Def Con from 1.39792e-05 to 1.39832e-05
Heightened Def Con from 1.4043e-05 to 1.4046e-05
Heightened Def Con from 1.4048e-05 to 1.40491e-05
Heightened Def Con from 1.40504e-05 to 1.40504e-05
Heightened Def Con from 1.40506e-05 to 1.40506e-05
Heightened Def Con from 1.40506e-05 to 1.40506e-05
Heightened Def Con from 1.40506e-05 to 1.40506e-05
Heightened Def Con from 1.40508e-05 to 1.40508e-05
Heightened Def Con from 1.40509e-05 to 1.40509e-05
Heightened Def Con from 1.40509e-05 to 1.40509e-05
Heightened Def Con from 1.4051e-05 to 1.4051e-05
Heightened Def Con from 1.40512e-05 to 1.40512e-05
Heightened Def Con from 1.40514e-05 to 1.4052e-05
Heightened Def Con from 1.40534e-05 to 1.40594e-05
Heightened Def Con from 1.42218e-05 to 1.42248e-05
Heightened Def Con from 1.42314e-05 to 1.42374e-05
Heightened Def Con from 1.48906e-05 to 1.4892e-05
Heightened Def Con from 1.4892e-05 to 1.48928e-05
Heightened Def Con from 1.66095e-05 to 1.66115e-05
Heightened Def Con from 1.67223e-05 to 1.67253e-05
Heightened Def Con from 2.03154e-05 to 2.03184e-05
Heightened Def Con from 2.07745e-05 to 2.07785e-05
Heightened Def Con from 2.0841e-05 to 2.0843e-05
Heightened Def Con from 2.09559e-05 to 2.09599e-05
Heightened Def Con from 2.12536e-05 to 2.12576e-05
Heightened Def Con from 2.13405e-05 to 2.13405e-05
Heightened Def Con from 2.13405e-05 to 2.13406e-05
Heightened Def Con from 2.1341e-05 to 2.1341e-05
Heightened Def Con from 2.13412e-05 to 2.13412e-05
Heightened Def Con from 2.13412e-05 to 2.13412e-05
Heightened Def Con from 2.13412e-05 to 2.13412e-05
Heightened Def Con from 2.13412e-05 to 2.13413e-05
Heightened Def Con from 2.13413e-05 to 2.13413e-05
Heightened Def Con from 2.13413e-05 to 2.13413e-05
Heightened Def Con from 2.13416e-05 to 2.13423e-05
Heightened Def Con from 2.13425e-05 to 2.13515e-05
Heightened Def Con from 2.17653e-05 to 2.17683e-05
Heightened Def Con from 2.17753e-05 to 2.17793e-05
Heightened Def Con from 2.18509e-05 to 2.18509e-05
Heightened Def Con from 2.18509e-05 to 2.18509e-05
Heightened Def Con from 2.18511e-05 to 2.18511e-05
Heightened Def Con from 2.18511e-05 to 2.18511e-05
Heightened Def Con from 2.18511e-05 to 2.18511e-05
Heightened Def Con from 2.18511e-05 to 2.18511e-05
Heightened Def Con from 2.18511e-05 to 2.18511e-05
Heightened Def Con from 2.18511e-05 to 2.18511e-05
Heightened Def Con from 2.18511e-05 to 2.18511e-05
Heightened Def Con from 2.18511e-05 to 2.18511e-05
Heightened Def Con from 2.18511e-05 to 2.18511e-05
Heightened Def Con from 2.18511e-05 to 2.18511e-05
Heightened Def Con from 2.18511e-05 to 2.18511e-05
Heightened Def Con from 2.18511e-05 to 2.18511e-05
Heightened Def Con from 2.18512e-05 to 2.18512e-05
Heightened Def Con from 2.18519e-05 to 2.18519e-05
Heightened Def Con from 2.18519e-05 to 2.18519e-05
Heightened Def Con from 2.18519e-05 to 2.18519e-05
Heightened Def Con from 2.18519e-05 to 2.18519e-05
Heightened Def Con from 2.18519e-05 to 2.18519e-05
Heightened Def Con from 2.18519e-05 to 2.18519e-05
Heightened Def Con from 2.18519e-05 to 2.18519e-05
Heightened Def Con from 2.18519e-05 to 2.18519e-05
Heightened Def Con from 2.1852e-05 to 2.1852e-05
Heightened Def Con from 2.1852e-05 to 2.1852e-05
Heightened Def Con from 2.1852e-05 to 2.18528e-05
Heightened Def Con from 2.19066e-05 to 2.19066e-05
Heightened Def Con from 2.19069e-05 to 2.19069e-05
Heightened Def Con from 2.19069e-05 to 2.19069e-05
Heightened Def Con from 2.1907e-05 to 2.1907e-05
Heightened Def Con from 2.1908e-05 to 2.19099e-05
Heightened Def Con from 2.2438e-05 to 2.244e-05
Heightened Def Con from 2.24446e-05 to 2.24466e-05
Heightened Def Con from 2.24474e-05 to 2.24488e-05
Heightened Def Con from 2.24488e-05 to 2.24496e-05
Heightened Def Con from 2.4238e-05 to 2.4241e-05
Heightened Def Con from 2.42434e-05 to 2.42474e-05
Heightened Def Con from 2.42772e-05 to 2.42812e-05
Heightened Def Con from 2.79044e-05 to 2.79074e-05
Heightened Def Con from 2.8702e-05 to 2.8705e-05
Heightened Def Con from 2.90934e-05 to 2.90954e-05
Heightened Def Con from 2.90978e-05 to 2.90978e-05
Heightened Def Con from 2.90983e-05 to 2.90983e-05
Heightened Def Con from 2.90983e-05 to 2.90983e-05
Heightened Def Con from 2.90983e-05 to 2.90983e-05
Heightened Def Con from 2.90983e-05 to 2.90984e-05
Heightened Def Con from 2.90985e-05 to 2.90985e-05
Heightened Def Con from 2.90986e-05 to 2.90986e-05
Heightened Def Con from 2.90986e-05 to 2.90986e-05
Heightened Def Con from 2.90986e-05 to 2.90986e-05
Heightened Def Con from 2.90988e-05 to 2.90988e-05
Heightened Def Con from 2.90989e-05 to 2.9099e-05
Heightened Def Con from 2.90992e-05 to 2.90998e-05
Heightened Def Con from 2.91625e-05 to 2.91685e-05
Heightened Def Con from 2.98232e-05 to 2.98252e-05
Heightened Def Con from 2.98261e-05 to 2.98263e-05
Heightened Def Con from 2.98263e-05 to 2.98276e-05
Heightened Def Con from 2.98277e-05 to 2.98278e-05
Heightened Def Con from 2.98278e-05 to 2.98318e-05
Heightened Def Con from 3.1755e-05 to 3.1758e-05
Heightened Def Con from 3.18155e-05 to 3.18195e-05
Heightened Def Con from 3.55105e-05 to 3.55135e-05
Heightened Def Con from 3.63336e-05 to 3.63376e-05
Heightened Def Con from 3.66284e-05 to 3.66314e-05
Heightened Def Con from 3.66322e-05 to 3.66382e-05
Heightened Def Con from 3.66977e-05 to 3.66997e-05
Heightened Def Con from 3.67018e-05 to 3.67018e-05
Heightened Def Con from 3.67019e-05 to 3.67019e-05
Heightened Def Con from 3.67019e-05 to 3.67019e-05
Heightened Def Con from 3.67019e-05 to 3.67019e-05
Heightened Def Con from 3.67019e-05 to 3.67019e-05
Heightened Def Con from 3.67019e-05 to 3.6702e-05
Heightened Def Con from 3.6702e-05 to 3.6702e-05
Heightened Def Con from 3.67021e-05 to 3.67022e-05
Heightened Def Con from 3.67023e-05 to 3.67023e-05
Heightened Def Con from 3.67027e-05 to 3.67027e-05
Heightened Def Con from 3.6703e-05 to 3.67032e-05
Heightened Def Con from 3.67032e-05 to 3.67132e-05
Heightened Def Con from 3.72766e-05 to 3.72768e-05
Heightened Def Con from 3.72776e-05 to 3.72786e-05
Heightened Def Con from 3.72787e-05 to 3.72796e-05
Heightened Def Con from 4.7147e-05 to 4.715e-05
Heightened Def Con from 5.84729e-05 to 5.84809e-05
Heightened Def Con from 6.23009e-05 to 6.23039e-05
Heightened Def Con from 7.35403e-05 to 7.35433e-05
Heightened Def Con from 8.10857e-05 to 8.10887e-05
Heightened Def Con from 8.11464e-05 to 8.11494e-05
Heightened Def Con from 8.19143e-05 to 8.19183e-05
Heightened Def Con from 8.21338e-05 to 8.21368e-05
Heightened Def Con from 8.21393e-05 to 8.21433e-05
Heightened Def Con from 8.2216e-05 to 8.222e-05
Heightened Def Con from 8.22395e-05 to 8.22435e-05
Heightened Def Con from 8.25258e-05 to 8.25308e-05
Heightened Def Con from 8.25991e-05 to 8.26021e-05
Heightened Def Con from 8.26035e-05 to 8.26035e-05
Heightened Def Con from 8.26036e-05 to 8.26036e-05
Heightened Def Con from 8.26036e-05 to 8.26036e-05
Heightened Def Con from 8.26037e-05 to 8.26037e-05
Heightened Def Con from 8.26037e-05 to 8.26037e-05
Heightened Def Con from 8.26038e-05 to 8.26038e-05
Heightened Def Con from 8.26038e-05 to 8.26038e-05
Heightened Def Con from 8.26038e-05 to 8.26038e-05
Heightened Def Con from 8.26038e-05 to 8.26038e-05
Heightened Def Con from 8.2604e-05 to 8.2604e-05
Heightened Def Con from 8.2604e-05 to 8.2604e-05
Heightened Def Con from 8.2604e-05 to 8.26041e-05
Heightened Def Con from 8.26043e-05 to 8.26043e-05
Heightened Def Con from 8.26046e-05 to 8.26047e-05
Heightened Def Con from 8.26047e-05 to 8.26047e-05
Heightened Def Con from 8.26048e-05 to 8.26048e-05
Heightened Def Con from 8.26048e-05 to 8.26049e-05
Heightened Def Con from 8.2605e-05 to 8.26056e-05
Heightened Def Con from 8.26397e-05 to 8.26427e-05
Heightened Def Con from 8.26468e-05 to 8.26558e-05
Heightened Def Con from 8.29113e-05 to 8.29213e-05
Heightened Def Con from 8.33099e-05 to 8.33119e-05
Heightened Def Con from 8.33124e-05 to 8.33137e-05
Heightened Def Con from 8.33137e-05 to 8.33146e-05
Heightened Def Con from 8.55096e-05 to 8.55116e-05
Heightened Def Con from 8.91958e-05 to 8.91978e-05
Heightened Def Con from 8.92454e-05 to 8.92494e-05
Heightened Def Con from 9.76204e-05 to 9.76234e-05
Heightened Def Con from 9.78385e-05 to 9.78435e-05
Heightened Def Con from 9.79673e-05 to 9.79685e-05
Heightened Def Con from 9.79685e-05 to 9.79692e-05
Heightened Def Con from 9.80242e-05 to 9.80312e-05
Heightened Def Con from 9.86936e-05 to 9.86942e-05
Heightened Def Con from 9.86942e-05 to 9.86948e-05
Heightened Def Con from 9.86949e-05 to 9.86957e-05
Heightened Def Con from 0.000100867 to 0.000100869
Heightened Def Con from 0.000104557 to 0.000104567
Heightened Def Con from 0.000112273 to 0.000112276
Heightened Def Con from 0.000116081 to 0.000116084
Heightened Def Con from 0.000116184 to 0.000116187
Heightened Def Con from 0.000119773 to 0.000119776
Heightened Def Con from 0.000119872 to 0.000119875
Heightened Def Con from 0.000123711 to 0.000123714
Heightened Def Con from 0.000123768 to 0.000123771
Heightened Def Con from 0.000127353 to 0.000127356
Heightened Def Con from 0.000127357 to 0.000127364
Heightened Def Con from 0.000127366 to 0.000127369
Heightened Def Con from 0.000131182 to 0.000131186
Heightened Def Con from 0.000134762 to 0.000134765
Heightened Def Con from 0.000138582 to 0.000138585
Heightened Def Con from 0.000138684 to 0.000138687
Heightened Def Con from 0.000142373 to 0.000142376
Heightened Def Con from 0.000150268 to 0.000150271
Heightened Def Con from 0.000151031 to 0.000151034
Heightened Def Con from 0.000151109 to 0.000151113
Heightened Def Con from 0.000151476 to 0.000151476
Heightened Def Con from 0.000151476 to 0.000151476
Heightened Def Con from 0.000151476 to 0.000151476
Heightened Def Con from 0.000151477 to 0.000151477
Heightened Def Con from 0.000151477 to 0.000151477
Heightened Def Con from 0.000151477 to 0.000151477
Heightened Def Con from 0.000151477 to 0.000151477
Heightened Def Con from 0.000151477 to 0.000151477
Heightened Def Con from 0.000151478 to 0.000151478
Heightened Def Con from 0.000151478 to 0.000151478
Heightened Def Con from 0.000151478 to 0.000151489
Heightened Def Con from 0.000151534 to 0.00015154
Heightened Def Con from 0.0001522 to 0.000152201
Heightened Def Con from 0.000152202 to 0.000152203
Heightened Def Con from 0.000152203 to 0.000152204
Heightened Def Con from 0.000154266 to 0.000154269
Heightened Def Con from 0.000154368 to 0.000154371
Heightened Def Con from 0.000158073 to 0.000158075
Heightened Def Con from 0.000165572 to 0.000165575
Heightened Def Con from 0.000172969 to 0.000172972
Heightened Def Con from 0.000180246 to 0.000180249
Heightened Def Con from 0.000180318 to 0.000180321
Heightened Def Con from 0.00018056 to 0.000180563
Heightened Def Con from 0.000181539 to 0.000181542
Heightened Def Con from 0.000181624 to 0.000181627
Heightened Def Con from 0.000181629 to 0.000181633
Heightened Def Con from 0.000184459 to 0.000184462
Heightened Def Con from 0.000184497 to 0.0001845
Heightened Def Con from 0.000195607 to 0.00019561
Heightened Def Con from 0.00019582 to 0.000195823
Heightened Def Con from 0.000196741 to 0.000196744
Heightened Def Con from 0.000197005 to 0.000197016
Heightened Def Con from 0.000197106 to 0.000197106
Heightened Def Con from 0.000197107 to 0.000197107
Heightened Def Con from 0.000197107 to 0.000197107
Heightened Def Con from 0.000197107 to 0.000197107
Heightened Def Con from 0.000197107 to 0.000197107
Heightened Def Con from 0.000197107 to 0.000197107
Heightened Def Con from 0.000197107 to 0.000197107
Heightened Def Con from 0.000197107 to 0.000197107
Heightened Def Con from 0.000197107 to 0.000197107
Heightened Def Con from 0.000197107 to 0.000197107
Heightened Def Con from 0.000197107 to 0.000197107
Heightened Def Con from 0.000197107 to 0.000197107
Heightened Def Con from 0.000197107 to 0.000197107
Heightened Def Con from 0.000197108 to 0.000197108
Heightened Def Con from 0.000197618 to 0.00019762
Heightened Def Con from 0.000197631 to 0.000197633
Heightened Def Con from 0.000197637 to 0.000197639
Heightened Def Con from 0.00019764 to 0.000197641
Heightened Def Con from 0.000197641 to 0.000197642
Heightened Def Con from 0.000199891 to 0.000199894
Heightened Def Con from 0.000203622 to 0.000203625
Heightened Def Con from 0.000203628 to 0.000203632
Heightened Def Con from 0.000203653 to 0.000203656
Heightened Def Con from 0.000204541 to 0.000204543
Heightened Def Con from 0.000204618 to 0.000204622
Heightened Def Con from 0.000204648 to 0.00020465
Heightened Def Con from 0.000204751 to 0.000204754
Heightened Def Con from 0.000211152 to 0.000211155
Heightened Def Con from 0.000211232 to 0.000211236
Heightened Def Con from 0.000211466 to 0.000211469
Heightened Def Con from 0.000219075 to 0.000219078
Heightened Def Con from 0.000226578 to 0.000226582
Heightened Def Con from 0.000226659 to 0.000226662
Heightened Def Con from 0.000233941 to 0.000233944
Heightened Def Con from 0.000237695 to 0.000237698
Heightened Def Con from 0.000241311 to 0.000241314
Heightened Def Con from 0.000245119 to 0.000245122
Heightened Def Con from 0.000248868 to 0.000248871
Total elapsed time: 13.036 seconds.

