Circuit: * C:\Users\---\Desktop\DCE\dce-g5-proyecto_integrador\Checkpoint 4\Simus\Buck.asc

Per .tran options, skipping operating point for transient analysis.

Date: Wed Oct 30 22:25:10 2024
Total elapsed time: 5.000 seconds.

tnom = 27
temp = 27
method = Gear
totiter = 959628
traniter = 959628
tranpoints = 349436
accept = 254297
rejected = 95139
matrix size = 39
fillins = 25
solver = Normal
Matrix Compiler1: 2.74 KB object code size  0.6/0.3/[0.1]
Matrix Compiler2: 3.28 KB object code size  0.3/0.4/[0.2]

