Circuit: * C:\Users\---\Desktop\DCE\dce-g5-proyecto_integrador\Checkpoint 4\Simus\Buck-lazo-abierto.asc

Instance "m:u1:_gd_template:_lo_stage:_lo_nmos": Length shorter than recommended for a level 1 MOSFET.
Instance "m:u1:_gd_template:_lo_stage:_lo_pmos": Length shorter than recommended for a level 1 MOSFET.
Instance "m:u1:_gd_template:_ho_stage:_ho_nmos": Length shorter than recommended for a level 1 MOSFET.
Instance "m:u1:_gd_template:_ho_stage:_ho_pmos": Length shorter than recommended for a level 1 MOSFET.
Direct Newton iteration failed to find .op point.  (Use ".option noopiter" to skip.)
Starting Gmin stepping
Gmin = 10
Gmin = 1.07374
vernier = 0.5
vernier = 0.25
vernier = 0.125
vernier = 0.0625
Gmin = 0.995033
vernier = 0.03125
vernier = 0.015625
vernier = 0.0078125
vernier = 0.00390625
vernier = 0.00195313
vernier = 0.000976563
Gmin = 1.00275
vernier = 0.000488281
Gmin = 0
Gmin stepping failed

Starting source stepping with srcstepmethod=0
Source Step = 3.0303%
Source Step = 33.3333%
Source Step = 50.1894%
vernier = 0.015625
Source Step = 50.0237%
Starting source stepping with srcstepmethod=1
Source Step = 3.0303%
Source Step = 33.3333%
Source Step = 50.1894%
vernier = 0.015625
Source stepping failed

Pseudo Transient failed in finding the operating point at 5.625 µs.
Trouble finding operating point....skipping operating point for Transient analysis.
Changing Tseed to 1e-009
to 2e-009
Heightened Def Con from 2.79143e-006 to 2.79157e-006
Heightened Def Con from 5.16299e-006 to 5.16313e-006
Heightened Def Con from 5.67292e-006 to 5.67308e-006
Heightened Def Con from 8.30756e-006 to 8.30771e-006
Heightened Def Con from 1.06716e-005 to 1.06718e-005
Heightened Def Con from 1.33092e-005 to 1.33095e-005
Heightened Def Con from 1.51538e-005 to 1.51539e-005
Heightened Def Con from 1.77977e-005 to 1.7798e-005
Heightened Def Con from 1.83123e-005 to 1.83123e-005
Heightened Def Con from 1.83128e-005 to 1.8313e-005
Heightened Def Con from 2.06743e-005 to 2.06745e-005
Heightened Def Con from 2.33108e-005 to 2.33109e-005
Heightened Def Con from 2.51582e-005 to 2.51585e-005
Heightened Def Con from 2.56721e-005 to 2.56733e-005
Heightened Def Con from 2.56734e-005 to 2.56736e-005
Heightened Def Con from 2.77977e-005 to 2.77979e-005
Heightened Def Con from 2.83133e-005 to 2.83133e-005
Heightened Def Con from 2.83136e-005 to 2.83138e-005
Heightened Def Con from 3.06719e-005 to 3.06729e-005
Heightened Def Con from 3.0673e-005 to 3.06731e-005
Heightened Def Con from 3.28047e-005 to 3.28048e-005
Heightened Def Con from 3.33122e-005 to 3.33125e-005
Heightened Def Con from 3.51612e-005 to 3.51682e-005
Heightened Def Con from 3.56725e-005 to 3.5673e-005
Heightened Def Con from 3.56731e-005 to 3.56732e-005
Heightened Def Con from 3.77955e-005 to 3.77966e-005
Heightened Def Con from 3.77967e-005 to 3.77971e-005
Heightened Def Con from 3.83108e-005 to 3.83108e-005
Heightened Def Con from 3.83113e-005 to 3.83116e-005
Heightened Def Con from 4.06733e-005 to 4.06733e-005
Heightened Def Con from 4.06737e-005 to 4.06737e-005
Heightened Def Con from 4.06743e-005 to 4.06746e-005
Heightened Def Con from 4.32454e-005 to 4.32484e-005
Heightened Def Con from 4.33114e-005 to 4.33114e-005
Heightened Def Con from 4.33123e-005 to 4.33123e-005
Heightened Def Con from 4.33126e-005 to 4.33127e-005
Heightened Def Con from 4.56669e-005 to 4.5667e-005
Heightened Def Con from 4.56677e-005 to 4.56683e-005
Heightened Def Con from 4.56684e-005 to 4.56686e-005
Heightened Def Con from 4.56686e-005 to 4.56726e-005
Heightened Def Con from 4.77978e-005 to 4.78088e-005
Heightened Def Con from 4.83109e-005 to 4.8311e-005
Heightened Def Con from 5.06729e-005 to 5.0674e-005
Heightened Def Con from 5.06741e-005 to 5.06744e-005
Heightened Def Con from 5.27974e-005 to 5.27975e-005
Heightened Def Con from 5.33131e-005 to 5.33131e-005
Heightened Def Con from 5.33132e-005 to 5.33133e-005
Heightened Def Con from 5.51555e-005 to 5.51555e-005
Heightened Def Con from 5.5674e-005 to 5.5674e-005
Heightened Def Con from 5.56744e-005 to 5.56744e-005
Heightened Def Con from 5.77994e-005 to 5.77995e-005
Heightened Def Con from 5.83133e-005 to 5.83133e-005
Heightened Def Con from 5.83134e-005 to 5.83135e-005
Heightened Def Con from 6.06728e-005 to 6.06734e-005
Heightened Def Con from 6.06735e-005 to 6.06737e-005
Heightened Def Con from 6.33121e-005 to 6.33121e-005
Heightened Def Con from 6.33122e-005 to 6.33122e-005
Heightened Def Con from 6.33126e-005 to 6.33128e-005
Heightened Def Con from 6.56044e-005 to 6.56074e-005
Heightened Def Con from 6.56713e-005 to 6.56719e-005
Heightened Def Con from 6.5672e-005 to 6.56726e-005
Heightened Def Con from 6.56727e-005 to 6.56729e-005
Heightened Def Con from 6.56729e-005 to 6.56769e-005
Heightened Def Con from 6.77978e-005 to 6.77981e-005
Heightened Def Con from 6.83091e-005 to 6.83091e-005
Heightened Def Con from 6.83093e-005 to 6.83093e-005
Heightened Def Con from 6.83093e-005 to 6.83095e-005
Heightened Def Con from 7.01556e-005 to 7.01556e-005
Heightened Def Con from 7.01562e-005 to 7.01564e-005
Heightened Def Con from 7.06708e-005 to 7.06712e-005
Heightened Def Con from 7.06712e-005 to 7.06718e-005
Heightened Def Con from 7.06719e-005 to 7.06719e-005
Heightened Def Con from 7.06721e-005 to 7.06721e-005
Heightened Def Con from 7.06723e-005 to 7.06723e-005
Heightened Def Con from 7.06725e-005 to 7.06726e-005
Heightened Def Con from 7.28028e-005 to 7.28036e-005
Heightened Def Con from 7.28037e-005 to 7.28039e-005
Heightened Def Con from 7.33076e-005 to 7.33096e-005
Heightened Def Con from 7.33108e-005 to 7.33108e-005
Heightened Def Con from 7.33108e-005 to 7.33108e-005
Heightened Def Con from 7.33109e-005 to 7.33109e-005
Heightened Def Con from 7.33109e-005 to 7.33109e-005
Heightened Def Con from 7.33111e-005 to 7.33112e-005
Heightened Def Con from 7.51502e-005 to 7.51503e-005
Heightened Def Con from 7.5337e-005 to 7.534e-005
Heightened Def Con from 7.56715e-005 to 7.56719e-005
Heightened Def Con from 7.56726e-005 to 7.56727e-005
Heightened Def Con from 7.56728e-005 to 7.56729e-005
Heightened Def Con from 7.77974e-005 to 7.77977e-005
Heightened Def Con from 7.83124e-005 to 7.83124e-005
Heightened Def Con from 7.83126e-005 to 7.83127e-005
Heightened Def Con from 7.83128e-005 to 7.83168e-005
Heightened Def Con from 8.0001e-005 to 8.0009e-005
Heightened Def Con from 8.01579e-005 to 8.0158e-005
Heightened Def Con from 8.01584e-005 to 8.01585e-005
Heightened Def Con from 8.01585e-005 to 8.01665e-005
Heightened Def Con from 8.06716e-005 to 8.06728e-005
Heightened Def Con from 8.06735e-005 to 8.06746e-005
Heightened Def Con from 8.06747e-005 to 8.06749e-005
Heightened Def Con from 8.28049e-005 to 8.28051e-005
Heightened Def Con from 8.31113e-005 to 8.31143e-005
Heightened Def Con from 8.33116e-005 to 8.33119e-005
Heightened Def Con from 8.5153e-005 to 8.51532e-005
Heightened Def Con from 8.56726e-005 to 8.56727e-005
Heightened Def Con from 8.56728e-005 to 8.56729e-005
Heightened Def Con from 8.56738e-005 to 8.56739e-005
Heightened Def Con from 8.5674e-005 to 8.56742e-005
Heightened Def Con from 8.56743e-005 to 8.56745e-005
Heightened Def Con from 8.7793e-005 to 8.7793e-005
Heightened Def Con from 8.77936e-005 to 8.77939e-005
Heightened Def Con from 8.77942e-005 to 8.77945e-005
Heightened Def Con from 8.83145e-005 to 8.83145e-005
Heightened Def Con from 8.83146e-005 to 8.83147e-005
Heightened Def Con from 8.83148e-005 to 8.83188e-005
Heightened Def Con from 9.0001e-005 to 9.0009e-005
Heightened Def Con from 9.01376e-005 to 9.01406e-005
Heightened Def Con from 9.01597e-005 to 9.01677e-005
Heightened Def Con from 9.06574e-005 to 9.06594e-005
Heightened Def Con from 9.06761e-005 to 9.06762e-005
Heightened Def Con from 9.06765e-005 to 9.06775e-005
Heightened Def Con from 9.06776e-005 to 9.06779e-005
Heightened Def Con from 9.26427e-005 to 9.26457e-005
Heightened Def Con from 9.27896e-005 to 9.27909e-005
Heightened Def Con from 9.27912e-005 to 9.27913e-005
Heightened Def Con from 9.30457e-005 to 9.30487e-005
Heightened Def Con from 9.33127e-005 to 9.33128e-005
Heightened Def Con from 9.50019e-005 to 9.50059e-005
Heightened Def Con from 9.51582e-005 to 9.51583e-005
Heightened Def Con from 9.51585e-005 to 9.51655e-005
Heightened Def Con from 9.55375e-005 to 9.55405e-005
Heightened Def Con from 9.5671e-005 to 9.56716e-005
Heightened Def Con from 9.56717e-005 to 9.56718e-005
Heightened Def Con from 9.56719e-005 to 9.5672e-005
Heightened Def Con from 9.56724e-005 to 9.56724e-005
Heightened Def Con from 9.56726e-005 to 9.56726e-005
Heightened Def Con from 9.56728e-005 to 9.56729e-005
Heightened Def Con from 9.56729e-005 to 9.56769e-005
Heightened Def Con from 9.77982e-005 to 9.77983e-005
Heightened Def Con from 9.83091e-005 to 9.83111e-005
Heightened Def Con from 9.83142e-005 to 9.83142e-005
Heightened Def Con from 9.83143e-005 to 9.83147e-005
Heightened Def Con from 9.83148e-005 to 9.83178e-005
Heightened Def Con from 0.000100158 to 0.000100158
Heightened Def Con from 0.00010016 to 0.000100163
Heightened Def Con from 0.00010067 to 0.000100672
Heightened Def Con from 0.000100672 to 0.000100672
Heightened Def Con from 0.000100673 to 0.000100674
Heightened Def Con from 0.000100674 to 0.000100674
Heightened Def Con from 0.000102641 to 0.000102648
Heightened Def Con from 0.000102804 to 0.000102805
Heightened Def Con from 0.000102805 to 0.000102805
Heightened Def Con from 0.000103177 to 0.00010318
Heightened Def Con from 0.000103309 to 0.00010331
Heightened Def Con from 0.00010331 to 0.00010331
Heightened Def Con from 0.00010331 to 0.00010331
Heightened Def Con from 0.000103311 to 0.000103311
Heightened Def Con from 0.000103311 to 0.000103314
Heightened Def Con from 0.000105002 to 0.000105007
Heightened Def Con from 0.00010516 to 0.00010516
Heightened Def Con from 0.000105161 to 0.000105165
Heightened Def Con from 0.000105655 to 0.000105657
Heightened Def Con from 0.000105669 to 0.000105669
Heightened Def Con from 0.000105669 to 0.000105669
Heightened Def Con from 0.000105669 to 0.000105669
Heightened Def Con from 0.00010567 to 0.00010567
Heightened Def Con from 0.00010567 to 0.00010567
Heightened Def Con from 0.00010567 to 0.00010567
Heightened Def Con from 0.00010567 to 0.00010567
Heightened Def Con from 0.000105671 to 0.000105671
Heightened Def Con from 0.000107642 to 0.000107646
Heightened Def Con from 0.000107795 to 0.000107795
Heightened Def Con from 0.000107797 to 0.000107797
Heightened Def Con from 0.000107797 to 0.000107797
Heightened Def Con from 0.000107797 to 0.000107798
Heightened Def Con from 0.00010831 to 0.000108311
Heightened Def Con from 0.000108311 to 0.000108311
Heightened Def Con from 0.000108311 to 0.000108311
Heightened Def Con from 0.000108312 to 0.000108312
Heightened Def Con from 0.000108313 to 0.000108313
Heightened Def Con from 0.000108313 to 0.000108313
Heightened Def Con from 0.000110001 to 0.000110007
Heightened Def Con from 0.000110137 to 0.00011014
Heightened Def Con from 0.000110151 to 0.000110151
Heightened Def Con from 0.000110151 to 0.000110151
Heightened Def Con from 0.000110151 to 0.000110158
Heightened Def Con from 0.000110405 to 0.000110408
Heightened Def Con from 0.000110671 to 0.000110672
Heightened Def Con from 0.000110672 to 0.000110673
Heightened Def Con from 0.000110673 to 0.000110673
Heightened Def Con from 0.000110673 to 0.000110674
Heightened Def Con from 0.000110674 to 0.000110674
Heightened Def Con from 0.000110674 to 0.000110674
Heightened Def Con from 0.000110674 to 0.000110677
Heightened Def Con from 0.000112641 to 0.000112648
Heightened Def Con from 0.000112799 to 0.000112799
Heightened Def Con from 0.000112799 to 0.0001128
Heightened Def Con from 0.000112803 to 0.000112806
Heightened Def Con from 0.000112844 to 0.000112847
Heightened Def Con from 0.000113111 to 0.000113114
Heightened Def Con from 0.000113294 to 0.000113296
Heightened Def Con from 0.000113311 to 0.000113311
Heightened Def Con from 0.000113311 to 0.000113311
Heightened Def Con from 0.000113311 to 0.000113311
Heightened Def Con from 0.000115001 to 0.000115008
Heightened Def Con from 0.000115158 to 0.000115158
Heightened Def Con from 0.000115158 to 0.000115165
Heightened Def Con from 0.000115655 to 0.000115657
Heightened Def Con from 0.000115674 to 0.000115674
Heightened Def Con from 0.000115674 to 0.000115675
Heightened Def Con from 0.000115675 to 0.000115675
Heightened Def Con from 0.000115675 to 0.00011568
Heightened Def Con from 0.000117641 to 0.000117648
Heightened Def Con from 0.000117799 to 0.0001178
Heightened Def Con from 0.0001178 to 0.0001178
Heightened Def Con from 0.000117803 to 0.000117806
Heightened Def Con from 0.000118243 to 0.000118246
Heightened Def Con from 0.000118306 to 0.000118308
Heightened Def Con from 0.000118309 to 0.000118309
Heightened Def Con from 0.000118309 to 0.000118309
Heightened Def Con from 0.000118309 to 0.00011831
Heightened Def Con from 0.00011831 to 0.000118313
Heightened Def Con from 0.000120001 to 0.000120008
Heightened Def Con from 0.000120137 to 0.00012014
Heightened Def Con from 0.000120157 to 0.000120157
Heightened Def Con from 0.000120158 to 0.000120158
Heightened Def Con from 0.000120158 to 0.000120158
Heightened Def Con from 0.000120158 to 0.000120159
Heightened Def Con from 0.000120159 to 0.000120166
Heightened Def Con from 0.000120657 to 0.000120659
Heightened Def Con from 0.000120672 to 0.000120672
Heightened Def Con from 0.000120672 to 0.000120672
Heightened Def Con from 0.000120673 to 0.000120673
Heightened Def Con from 0.000120673 to 0.000120673
Heightened Def Con from 0.000120673 to 0.000120673
Heightened Def Con from 0.000120674 to 0.000120674
Heightened Def Con from 0.000120674 to 0.000120674
Heightened Def Con from 0.000120674 to 0.000120678
Heightened Def Con from 0.000122642 to 0.000122649
Heightened Def Con from 0.000122776 to 0.000122779
Heightened Def Con from 0.000122798 to 0.000122798
Heightened Def Con from 0.000122798 to 0.000122798
Heightened Def Con from 0.000122799 to 0.000122799
Heightened Def Con from 0.000122799 to 0.000122799
Heightened Def Con from 0.00012291 to 0.000122913
Heightened Def Con from 0.000123303 to 0.000123305
Heightened Def Con from 0.000123309 to 0.00012331
Heightened Def Con from 0.000123311 to 0.000123311
Heightened Def Con from 0.000123311 to 0.000123311
Heightened Def Con from 0.000123311 to 0.000123311
Heightened Def Con from 0.000123311 to 0.000123315
Heightened Def Con from 0.000125001 to 0.000125008
Heightened Def Con from 0.00012515 to 0.00012515
Heightened Def Con from 0.00012515 to 0.00012515
Heightened Def Con from 0.00012515 to 0.000125157
Heightened Def Con from 0.000125604 to 0.000125607
Heightened Def Con from 0.000125671 to 0.000125672
Heightened Def Con from 0.000125672 to 0.000125673
Heightened Def Con from 0.000127642 to 0.000127648
Heightened Def Con from 0.000127796 to 0.000127796
Heightened Def Con from 0.000127796 to 0.000127797
Heightened Def Con from 0.000127797 to 0.000127797
Heightened Def Con from 0.000128044 to 0.000128047
Heightened Def Con from 0.000128178 to 0.000128181
Heightened Def Con from 0.000128311 to 0.000128311
Heightened Def Con from 0.000128311 to 0.000128311
Heightened Def Con from 0.000128311 to 0.000128311
Heightened Def Con from 0.000128311 to 0.000128311
Heightened Def Con from 0.000128311 to 0.000128311
Heightened Def Con from 0.000128311 to 0.000128311
Heightened Def Con from 0.000128311 to 0.000128311
Heightened Def Con from 0.000129999 to 0.000130009
Heightened Def Con from 0.000130159 to 0.000130159
Heightened Def Con from 0.000130159 to 0.000130159
Heightened Def Con from 0.000130159 to 0.000130159
Heightened Def Con from 0.000130159 to 0.000130159
Heightened Def Con from 0.00013027 to 0.000130273
Heightened Def Con from 0.000130604 to 0.000130607
Heightened Def Con from 0.000130671 to 0.000130671
Heightened Def Con from 0.000130671 to 0.000130672
Heightened Def Con from 0.000130672 to 0.000130672
Heightened Def Con from 0.000132642 to 0.000132649
Heightened Def Con from 0.000132776 to 0.000132779
Heightened Def Con from 0.000132797 to 0.000132797
Heightened Def Con from 0.000132797 to 0.000132799
Heightened Def Con from 0.000132799 to 0.000132799
Heightened Def Con from 0.000132802 to 0.000132806
Heightened Def Con from 0.000133043 to 0.000133046
Heightened Def Con from 0.000133177 to 0.00013318
Heightened Def Con from 0.00013331 to 0.00013331
Heightened Def Con from 0.00013331 to 0.00013331
Heightened Def Con from 0.00013331 to 0.00013331
Heightened Def Con from 0.00013331 to 0.00013331
Heightened Def Con from 0.00013331 to 0.00013331
Heightened Def Con from 0.00013331 to 0.00013331
Heightened Def Con from 0.000135 to 0.000135008
Heightened Def Con from 0.000135136 to 0.000135139
Heightened Def Con from 0.000135157 to 0.000135157
Heightened Def Con from 0.000135157 to 0.000135157
Heightened Def Con from 0.000135157 to 0.000135157
Heightened Def Con from 0.000135157 to 0.000135158
Heightened Def Con from 0.000135158 to 0.000135166
Heightened Def Con from 0.000135471 to 0.000135474
Heightened Def Con from 0.000135663 to 0.000135665
Heightened Def Con from 0.000135668 to 0.00013567
Heightened Def Con from 0.000135671 to 0.000135672
Heightened Def Con from 0.000135673 to 0.000135673
Heightened Def Con from 0.000135673 to 0.000135677
Heightened Def Con from 0.000137642 to 0.000137648
Heightened Def Con from 0.000137709 to 0.000137712
Heightened Def Con from 0.000137796 to 0.000137797
Heightened Def Con from 0.000137797 to 0.000137797
Heightened Def Con from 0.000137798 to 0.000137809
Heightened Def Con from 0.00013831 to 0.00013831
Heightened Def Con from 0.00013831 to 0.00013831
Heightened Def Con from 0.00013831 to 0.00013831
Heightened Def Con from 0.00013831 to 0.000138311
Heightened Def Con from 0.000140001 to 0.000140009
Heightened Def Con from 0.000140137 to 0.00014014
Heightened Def Con from 0.000140158 to 0.000140158
Heightened Def Con from 0.000140158 to 0.000140158
Heightened Def Con from 0.000140158 to 0.000140158
Heightened Def Con from 0.000140158 to 0.000140158
Heightened Def Con from 0.000140159 to 0.000140159
Heightened Def Con from 0.000140159 to 0.000140159
Heightened Def Con from 0.000140159 to 0.000140166
Heightened Def Con from 0.000140661 to 0.000140663
Heightened Def Con from 0.000140672 to 0.000140673
Heightened Def Con from 0.000140673 to 0.000140674
Heightened Def Con from 0.000140674 to 0.000140674
Heightened Def Con from 0.000140674 to 0.000140678
Heightened Def Con from 0.000142642 to 0.000142647
Heightened Def Con from 0.000142776 to 0.000142779
Heightened Def Con from 0.000142796 to 0.000142796
Heightened Def Con from 0.000142798 to 0.000142798
Heightened Def Con from 0.000142801 to 0.000142809
Heightened Def Con from 0.000143297 to 0.000143299
Heightened Def Con from 0.000143307 to 0.000143309
Heightened Def Con from 0.00014331 to 0.00014331
Heightened Def Con from 0.00014331 to 0.00014331
Heightened Def Con from 0.00014331 to 0.00014331
Heightened Def Con from 0.00014331 to 0.00014331
Heightened Def Con from 0.00014331 to 0.00014331
Heightened Def Con from 0.00014331 to 0.00014331
Heightened Def Con from 0.00014331 to 0.000143314
Heightened Def Con from 0.000145001 to 0.000145008
Heightened Def Con from 0.000145069 to 0.000145072
Heightened Def Con from 0.000145156 to 0.000145156
Heightened Def Con from 0.000145156 to 0.000145156
Heightened Def Con from 0.000145157 to 0.000145163
Heightened Def Con from 0.000145673 to 0.000145674
Heightened Def Con from 0.000145675 to 0.000145675
Heightened Def Con from 0.000145675 to 0.000145675
Heightened Def Con from 0.000145675 to 0.000145675
Heightened Def Con from 0.000145675 to 0.000145679
Heightened Def Con from 0.000147642 to 0.000147648
Heightened Def Con from 0.000147775 to 0.000147778
Heightened Def Con from 0.000147796 to 0.000147796
Heightened Def Con from 0.000147797 to 0.000147797
Heightened Def Con from 0.000147798 to 0.000147798
Heightened Def Con from 0.000147798 to 0.000147798
Heightened Def Con from 0.0001478 to 0.000147808
Heightened Def Con from 0.000148312 to 0.000148312
Heightened Def Con from 0.000148313 to 0.000148313
Heightened Def Con from 0.000148313 to 0.000148313
Heightened Def Con from 0.000148313 to 0.000148313
Heightened Def Con from 0.000148313 to 0.000148313
Heightened Def Con from 0.000148313 to 0.000148313
Heightened Def Con from 0.000148313 to 0.000148313
Heightened Def Con from 0.000148313 to 0.000148313
Heightened Def Con from 0.000148313 to 0.000148314
Heightened Def Con from 0.000150001 to 0.000150009
Heightened Def Con from 0.000150137 to 0.00015014
Heightened Def Con from 0.000150157 to 0.000150157
Heightened Def Con from 0.000150157 to 0.000150157
Heightened Def Con from 0.000150158 to 0.000150158
Heightened Def Con from 0.000150158 to 0.000150159
Heightened Def Con from 0.000150159 to 0.000150167
Heightened Def Con from 0.000150404 to 0.000150407
Heightened Def Con from 0.000150663 to 0.000150665
Heightened Def Con from 0.000150669 to 0.000150671
Heightened Def Con from 0.000150671 to 0.000150672
Heightened Def Con from 0.000150672 to 0.000150673
Heightened Def Con from 0.000150673 to 0.000150676
Heightened Def Con from 0.000152641 to 0.000152648
Heightened Def Con from 0.000152709 to 0.000152712
Heightened Def Con from 0.000152798 to 0.000152799
Heightened Def Con from 0.000152799 to 0.000152799
Heightened Def Con from 0.0001528 to 0.00015281
Heightened Def Con from 0.000153108 to 0.000153111
Heightened Def Con from 0.000153243 to 0.000153246
Heightened Def Con from 0.000153295 to 0.000153297
Heightened Def Con from 0.000153309 to 0.000153309
Heightened Def Con from 0.000153309 to 0.000153309
Heightened Def Con from 0.000153309 to 0.000153309
Heightened Def Con from 0.000153309 to 0.000153309
Heightened Def Con from 0.000153309 to 0.000153309
Heightened Def Con from 0.000153309 to 0.000153309
Heightened Def Con from 0.000153309 to 0.000153309
Heightened Def Con from 0.000153309 to 0.000153309
Heightened Def Con from 0.000153309 to 0.000153309
Heightened Def Con from 0.000153309 to 0.000153313
Heightened Def Con from 0.000155001 to 0.000155009
Heightened Def Con from 0.000155137 to 0.00015514
Heightened Def Con from 0.000155158 to 0.000155158
Heightened Def Con from 0.000155158 to 0.000155158
Heightened Def Con from 0.000155159 to 0.000155163
Heightened Def Con from 0.000155204 to 0.000155207
Heightened Def Con from 0.000155271 to 0.000155274
Heightened Def Con from 0.000155653 to 0.000155655
Heightened Def Con from 0.000155663 to 0.000155665
Heightened Def Con from 0.000155671 to 0.000155672
Heightened Def Con from 0.000155672 to 0.000155673
Heightened Def Con from 0.000155673 to 0.000155677
Heightened Def Con from 0.000157641 to 0.000157648
Heightened Def Con from 0.000157776 to 0.000157779
Heightened Def Con from 0.000157797 to 0.000157797
Heightened Def Con from 0.000157798 to 0.000157799
Heightened Def Con from 0.0001578 to 0.000157808
Heightened Def Con from 0.000157978 to 0.000157981
Heightened Def Con from 0.00015831 to 0.000158311
Heightened Def Con from 0.000158311 to 0.000158311
Heightened Def Con from 0.000158312 to 0.000158312
Heightened Def Con from 0.000158312 to 0.000158312
Heightened Def Con from 0.000158312 to 0.000158312
Heightened Def Con from 0.000158312 to 0.000158317
Heightened Def Con from 0.00016 to 0.000160008
Heightened Def Con from 0.000160136 to 0.000160139
Heightened Def Con from 0.000160157 to 0.000160157
Heightened Def Con from 0.000160157 to 0.000160157
Heightened Def Con from 0.000160157 to 0.000160157
Heightened Def Con from 0.000160157 to 0.000160157
Heightened Def Con from 0.000160158 to 0.000160158
Heightened Def Con from 0.000160158 to 0.000160158
Heightened Def Con from 0.000160158 to 0.000160158
Heightened Def Con from 0.000160159 to 0.000160162
Heightened Def Con from 0.000160667 to 0.000160669
Heightened Def Con from 0.000160672 to 0.000160674
Heightened Def Con from 0.000160675 to 0.000160676
Heightened Def Con from 0.000160676 to 0.000160676
Heightened Def Con from 0.000160676 to 0.000160676
Heightened Def Con from 0.000160676 to 0.000160681
Heightened Def Con from 0.000162642 to 0.000162649
Heightened Def Con from 0.000162776 to 0.000162779
Heightened Def Con from 0.000162797 to 0.000162797
Heightened Def Con from 0.000162798 to 0.000162798
Heightened Def Con from 0.000162798 to 0.000162799
Heightened Def Con from 0.000162799 to 0.0001628
Heightened Def Con from 0.0001628 to 0.000162809
Heightened Def Con from 0.000163244 to 0.000163247
Heightened Def Con from 0.000163309 to 0.00016331
Heightened Def Con from 0.00016331 to 0.00016331
Heightened Def Con from 0.00016331 to 0.00016331
Heightened Def Con from 0.000163311 to 0.000163311
Heightened Def Con from 0.000163311 to 0.000163311
Heightened Def Con from 0.000163311 to 0.000163315
Heightened Def Con from 0.000165001 to 0.000165009
Heightened Def Con from 0.000165137 to 0.00016514
Heightened Def Con from 0.000165157 to 0.000165157
Heightened Def Con from 0.000165158 to 0.000165158
Heightened Def Con from 0.000165158 to 0.000165158
Heightened Def Con from 0.000165158 to 0.000165158
Heightened Def Con from 0.000165158 to 0.000165158
Heightened Def Con from 0.000165158 to 0.000165159
Heightened Def Con from 0.000165159 to 0.000165166
Heightened Def Con from 0.000165606 to 0.000165609
Heightened Def Con from 0.000165658 to 0.00016566
Heightened Def Con from 0.000165667 to 0.000165669
Heightened Def Con from 0.000165672 to 0.000165673
Heightened Def Con from 0.000165673 to 0.000165673
Heightened Def Con from 0.000165673 to 0.000165674
Heightened Def Con from 0.000165674 to 0.000165674
Heightened Def Con from 0.000165674 to 0.000165678
Heightened Def Con from 0.000167641 to 0.000167649
Heightened Def Con from 0.000167777 to 0.00016778
Heightened Def Con from 0.000167799 to 0.000167799
Heightened Def Con from 0.000167799 to 0.0001678
Heightened Def Con from 0.0001678 to 0.0001678
Heightened Def Con from 0.0001678 to 0.000167811
Heightened Def Con from 0.000168043 to 0.000168046
Heightened Def Con from 0.000168177 to 0.00016818
Heightened Def Con from 0.000168296 to 0.000168298
Heightened Def Con from 0.00016831 to 0.00016831
Heightened Def Con from 0.00016831 to 0.00016831
Heightened Def Con from 0.00016831 to 0.00016831
Heightened Def Con from 0.00016831 to 0.00016831
Heightened Def Con from 0.00016831 to 0.00016831
Heightened Def Con from 0.000168311 to 0.000168311
Heightened Def Con from 0.000168311 to 0.000168311
Heightened Def Con from 0.000168311 to 0.000168311
Heightened Def Con from 0.000168311 to 0.000168311
Heightened Def Con from 0.000168311 to 0.000168311
Heightened Def Con from 0.000168311 to 0.000168315
Heightened Def Con from 0.000170001 to 0.000170009
Heightened Def Con from 0.000170137 to 0.00017014
Heightened Def Con from 0.000170157 to 0.000170157
Heightened Def Con from 0.000170157 to 0.000170157
Heightened Def Con from 0.000170157 to 0.000170157
Heightened Def Con from 0.000170157 to 0.000170157
Heightened Def Con from 0.000170158 to 0.000170158
Heightened Def Con from 0.000170158 to 0.000170159
Heightened Def Con from 0.000170159 to 0.000170164
Heightened Def Con from 0.000170471 to 0.000170474
Heightened Def Con from 0.000170605 to 0.000170608
Heightened Def Con from 0.000170657 to 0.000170659
Heightened Def Con from 0.000170667 to 0.000170669
Heightened Def Con from 0.000170671 to 0.000170672
Heightened Def Con from 0.000170672 to 0.000170672
Heightened Def Con from 0.000170672 to 0.000170672
Heightened Def Con from 0.000170672 to 0.000170672
Heightened Def Con from 0.000170672 to 0.000170672
Heightened Def Con from 0.000170672 to 0.000170673
Heightened Def Con from 0.000170673 to 0.000170677
Heightened Def Con from 0.000172642 to 0.000172647
Heightened Def Con from 0.000172775 to 0.000172778
Heightened Def Con from 0.000172797 to 0.000172798
Heightened Def Con from 0.000172798 to 0.000172798
Heightened Def Con from 0.000172798 to 0.000172798
Heightened Def Con from 0.000172799 to 0.000172809
Heightened Def Con from 0.000173307 to 0.000173307
Heightened Def Con from 0.000173308 to 0.000173308
Heightened Def Con from 0.000173308 to 0.000173308
Heightened Def Con from 0.000173308 to 0.000173308
Heightened Def Con from 0.000173308 to 0.000173308
Heightened Def Con from 0.000173308 to 0.000173312
Heightened Def Con from 0.000175 to 0.000175008
Heightened Def Con from 0.000175136 to 0.000175139
Heightened Def Con from 0.000175157 to 0.000175157
Heightened Def Con from 0.000175157 to 0.000175157
Heightened Def Con from 0.000175157 to 0.000175157
Heightened Def Con from 0.000175157 to 0.000175157
Heightened Def Con from 0.000175157 to 0.000175157
Heightened Def Con from 0.000175157 to 0.000175157
Heightened Def Con from 0.000175157 to 0.000175157
Heightened Def Con from 0.000175157 to 0.000175157
Heightened Def Con from 0.000175158 to 0.000175158
Heightened Def Con from 0.000175158 to 0.000175165
Heightened Def Con from 0.000175469 to 0.000175472
Heightened Def Con from 0.000175663 to 0.000175665
Heightened Def Con from 0.000175669 to 0.00017567
Heightened Def Con from 0.00017567 to 0.000175671
Heightened Def Con from 0.000175671 to 0.000175671
Heightened Def Con from 0.000177641 to 0.000177648
Heightened Def Con from 0.000177708 to 0.000177711
Heightened Def Con from 0.000177796 to 0.000177796
Heightened Def Con from 0.000177796 to 0.000177797
Heightened Def Con from 0.000177798 to 0.000177808
Heightened Def Con from 0.00017831 to 0.000178311
Heightened Def Con from 0.000178311 to 0.000178311
Heightened Def Con from 0.000178311 to 0.000178311
Heightened Def Con from 0.000178312 to 0.000178312
Heightened Def Con from 0.000178312 to 0.000178312
Heightened Def Con from 0.000178312 to 0.000178312
Heightened Def Con from 0.000178312 to 0.000178312
Heightened Def Con from 0.000178312 to 0.000178312
Heightened Def Con from 0.000178312 to 0.000178312
Heightened Def Con from 0.000178312 to 0.000178316
Heightened Def Con from 0.000180001 to 0.000180008
Heightened Def Con from 0.000180152 to 0.000180152
Heightened Def Con from 0.000180152 to 0.000180152
Heightened Def Con from 0.000180152 to 0.00018016
Heightened Def Con from 0.000180659 to 0.000180661
Heightened Def Con from 0.000180672 to 0.000180673
Heightened Def Con from 0.000180673 to 0.000180674
Heightened Def Con from 0.000180674 to 0.000180677
Heightened Def Con from 0.000182641 to 0.000182649
Heightened Def Con from 0.000182776 to 0.000182779
Heightened Def Con from 0.000182798 to 0.000182798
Heightened Def Con from 0.000182798 to 0.000182799
Heightened Def Con from 0.000182799 to 0.000182799
Heightened Def Con from 0.000182799 to 0.000182799
Heightened Def Con from 0.000182799 to 0.000182799
Heightened Def Con from 0.0001828 to 0.000182809
Heightened Def Con from 0.000183043 to 0.000183046
Heightened Def Con from 0.00018331 to 0.00018331
Heightened Def Con from 0.00018331 to 0.00018331
Heightened Def Con from 0.00018331 to 0.000183315
Heightened Def Con from 0.000185001 to 0.000185009
Heightened Def Con from 0.000185137 to 0.00018514
Heightened Def Con from 0.000185157 to 0.000185158
Heightened Def Con from 0.000185158 to 0.000185158
Heightened Def Con from 0.000185158 to 0.000185158
Heightened Def Con from 0.000185158 to 0.000185158
Heightened Def Con from 0.000185158 to 0.000185158
Heightened Def Con from 0.000185158 to 0.000185158
Heightened Def Con from 0.000185159 to 0.000185165
Heightened Def Con from 0.00018527 to 0.000185273
Heightened Def Con from 0.000185337 to 0.00018534
Heightened Def Con from 0.000185656 to 0.000185658
Heightened Def Con from 0.00018567 to 0.000185671
Heightened Def Con from 0.000185671 to 0.000185671
Heightened Def Con from 0.000185671 to 0.000185672
Heightened Def Con from 0.000185672 to 0.000185672
Heightened Def Con from 0.000185673 to 0.000185673
Heightened Def Con from 0.000187642 to 0.000187649
Heightened Def Con from 0.000187796 to 0.000187797
Heightened Def Con from 0.000187798 to 0.000187798
Heightened Def Con from 0.000187798 to 0.000187798
Heightened Def Con from 0.000187798 to 0.000187798
Heightened Def Con from 0.0001878 to 0.000187807
Heightened Def Con from 0.000187844 to 0.000187847
Heightened Def Con from 0.000188112 to 0.000188115
Heightened Def Con from 0.00018831 to 0.000188311
Heightened Def Con from 0.000188311 to 0.000188311
Heightened Def Con from 0.000188311 to 0.000188311
Heightened Def Con from 0.000188311 to 0.000188311
Heightened Def Con from 0.000188311 to 0.000188311
Heightened Def Con from 0.000188312 to 0.000188312
Heightened Def Con from 0.000188312 to 0.000188316
Heightened Def Con from 0.000190001 to 0.000190009
Heightened Def Con from 0.000190137 to 0.00019014
Heightened Def Con from 0.000190158 to 0.000190158
Heightened Def Con from 0.000190158 to 0.000190165
Heightened Def Con from 0.000190666 to 0.000190668
Heightened Def Con from 0.000190676 to 0.000190676
Heightened Def Con from 0.000190677 to 0.000190677
Heightened Def Con from 0.000190677 to 0.000190677
Heightened Def Con from 0.000192641 to 0.000192648
Heightened Def Con from 0.000192709 to 0.000192712
Heightened Def Con from 0.000192792 to 0.000192795
Heightened Def Con from 0.000192796 to 0.000192797
Heightened Def Con from 0.000192797 to 0.000192797
Heightened Def Con from 0.000192797 to 0.000192797
Heightened Def Con from 0.000192797 to 0.000192797
Heightened Def Con from 0.000192797 to 0.000192808
Heightened Def Con from 0.000192977 to 0.00019298
Heightened Def Con from 0.000193293 to 0.000193295
Heightened Def Con from 0.000193312 to 0.000193312
Heightened Def Con from 0.000193312 to 0.000193312
Heightened Def Con from 0.000193312 to 0.000193312
Heightened Def Con from 0.000193312 to 0.000193312
Heightened Def Con from 0.000193312 to 0.000193315
Heightened Def Con from 0.000195001 to 0.000195009
Heightened Def Con from 0.00019507 to 0.000195073
Heightened Def Con from 0.000195153 to 0.000195156
Heightened Def Con from 0.000195156 to 0.000195157
Heightened Def Con from 0.000195157 to 0.000195157
Heightened Def Con from 0.000195157 to 0.000195157
Heightened Def Con from 0.000195157 to 0.000195157
Heightened Def Con from 0.000195157 to 0.000195165
Heightened Def Con from 0.000195674 to 0.000195674
Heightened Def Con from 0.000195674 to 0.000195675
Heightened Def Con from 0.000195675 to 0.000195675
Heightened Def Con from 0.000195675 to 0.000195676
Heightened Def Con from 0.000195676 to 0.00019568
Heightened Def Con from 0.000197641 to 0.000197649
Heightened Def Con from 0.000197776 to 0.000197779
Heightened Def Con from 0.000197798 to 0.000197798
Heightened Def Con from 0.000197798 to 0.000197798
Heightened Def Con from 0.000197798 to 0.000197799
Heightened Def Con from 0.000197799 to 0.000197799
Heightened Def Con from 0.0001978 to 0.00019781
Heightened Def Con from 0.000197844 to 0.000197847
Heightened Def Con from 0.000198045 to 0.000198048
Heightened Def Con from 0.0001983 to 0.000198302
Heightened Def Con from 0.000198312 to 0.000198312
Heightened Def Con from 0.000198312 to 0.000198312
Heightened Def Con from 0.000198312 to 0.000198312
Heightened Def Con from 0.000198312 to 0.000198313
Heightened Def Con from 0.000198313 to 0.000198317
Heightened Def Con from 0.000200001 to 0.000200007
Heightened Def Con from 0.000200151 to 0.000200154
Heightened Def Con from 0.000200155 to 0.000200155
Heightened Def Con from 0.000200155 to 0.000200155
Heightened Def Con from 0.000200155 to 0.000200155
Heightened Def Con from 0.000200155 to 0.000200162
Heightened Def Con from 0.000200649 to 0.000200651
Heightened Def Con from 0.000200668 to 0.000200669
Heightened Def Con from 0.000200669 to 0.000200669
Heightened Def Con from 0.000200669 to 0.000200673
Heightened Def Con from 0.000202641 to 0.000202648
Heightened Def Con from 0.000202709 to 0.000202712
Heightened Def Con from 0.000202796 to 0.000202796
Heightened Def Con from 0.000202796 to 0.000202797
Heightened Def Con from 0.000202797 to 0.000202797
Heightened Def Con from 0.000202797 to 0.000202798
Heightened Def Con from 0.000202798 to 0.000202809
Heightened Def Con from 0.000202844 to 0.000202847
Heightened Def Con from 0.000203304 to 0.000203306
Heightened Def Con from 0.000203314 to 0.000203314
Heightened Def Con from 0.000203314 to 0.000203314
Heightened Def Con from 0.000203314 to 0.000203314
Heightened Def Con from 0.000203314 to 0.000203314
Heightened Def Con from 0.000203314 to 0.000203314
Heightened Def Con from 0.000203314 to 0.000203314
Heightened Def Con from 0.000203315 to 0.000203315
Heightened Def Con from 0.000203315 to 0.000203318
Heightened Def Con from 0.000204999 to 0.000205009
Heightened Def Con from 0.000205137 to 0.00020514
Heightened Def Con from 0.000205157 to 0.000205157
Heightened Def Con from 0.000205158 to 0.000205158
Heightened Def Con from 0.000205158 to 0.000205159
Heightened Def Con from 0.000205159 to 0.000205165
Heightened Def Con from 0.000205204 to 0.000205207
Heightened Def Con from 0.000205668 to 0.00020567
Heightened Def Con from 0.000205673 to 0.000205674
Heightened Def Con from 0.000205674 to 0.000205674
Heightened Def Con from 0.000205675 to 0.000205679
Heightened Def Con from 0.000207641 to 0.000207648
Heightened Def Con from 0.000207777 to 0.00020778
Heightened Def Con from 0.000207787 to 0.000207788
Heightened Def Con from 0.000207788 to 0.000207788
Heightened Def Con from 0.000207789 to 0.000207789
Heightened Def Con from 0.000207789 to 0.000207789
Heightened Def Con from 0.000207789 to 0.0002078
Heightened Def Con from 0.000208045 to 0.000208048
Heightened Def Con from 0.000208306 to 0.000208308
Heightened Def Con from 0.000208314 to 0.000208314
Heightened Def Con from 0.000208314 to 0.000208314
Heightened Def Con from 0.000208314 to 0.000208314
Heightened Def Con from 0.000208314 to 0.000208314
Heightened Def Con from 0.000208314 to 0.000208314
Heightened Def Con from 0.000208315 to 0.000208315
Heightened Def Con from 0.000208315 to 0.000208315
Heightened Def Con from 0.000208315 to 0.000208315
Heightened Def Con from 0.000208315 to 0.000208315
Heightened Def Con from 0.000208315 to 0.000208315
Heightened Def Con from 0.000208315 to 0.000208315
Heightened Def Con from 0.000208315 to 0.000208315
Heightened Def Con from 0.000208315 to 0.000208315
Heightened Def Con from 0.000208315 to 0.000208315
Heightened Def Con from 0.000208315 to 0.000208315
Heightened Def Con from 0.000208315 to 0.000208318
Heightened Def Con from 0.000210001 to 0.000210009
Heightened Def Con from 0.000210137 to 0.00021014
Heightened Def Con from 0.000210157 to 0.000210157
Heightened Def Con from 0.000210157 to 0.000210157
Heightened Def Con from 0.000210158 to 0.000210158
Heightened Def Con from 0.000210158 to 0.000210158
Heightened Def Con from 0.000210158 to 0.000210158
Heightened Def Con from 0.000210158 to 0.000210158
Heightened Def Con from 0.000210158 to 0.000210158
Heightened Def Con from 0.000210158 to 0.000210158
Heightened Def Con from 0.000210158 to 0.000210158
Heightened Def Con from 0.000210158 to 0.000210158
Heightened Def Con from 0.000210158 to 0.000210158
Heightened Def Con from 0.000210158 to 0.000210166
Heightened Def Con from 0.000210404 to 0.000210407
Heightened Def Con from 0.000210669 to 0.00021067
Heightened Def Con from 0.000210671 to 0.000210671
Heightened Def Con from 0.000210671 to 0.000210672
Heightened Def Con from 0.000210672 to 0.000210672
Heightened Def Con from 0.000210672 to 0.000210672
Heightened Def Con from 0.000210672 to 0.000210676
Heightened Def Con from 0.000212641 to 0.000212648
Heightened Def Con from 0.000212798 to 0.000212798
Heightened Def Con from 0.000212798 to 0.000212799
Heightened Def Con from 0.000212799 to 0.00021281
Heightened Def Con from 0.000213045 to 0.000213048
Heightened Def Con from 0.000213179 to 0.000213182
Heightened Def Con from 0.000213246 to 0.000213249
Heightened Def Con from 0.000213299 to 0.000213301
Heightened Def Con from 0.000213308 to 0.00021331
Heightened Def Con from 0.000213311 to 0.000213312
Heightened Def Con from 0.000213313 to 0.000213313
Heightened Def Con from 0.000213313 to 0.000213313
Heightened Def Con from 0.000213313 to 0.000213313
Heightened Def Con from 0.000213313 to 0.000213313
Heightened Def Con from 0.000213313 to 0.000213313
Heightened Def Con from 0.000213313 to 0.000213313
Heightened Def Con from 0.000213313 to 0.000213313
Heightened Def Con from 0.000213313 to 0.000213316
Heightened Def Con from 0.000215001 to 0.000215009
Heightened Def Con from 0.000215137 to 0.00021514
Heightened Def Con from 0.000215157 to 0.000215157
Heightened Def Con from 0.000215157 to 0.000215157
Heightened Def Con from 0.000215157 to 0.000215157
Heightened Def Con from 0.000215158 to 0.000215158
Heightened Def Con from 0.000215158 to 0.000215158
Heightened Def Con from 0.000215158 to 0.000215158
Heightened Def Con from 0.000215158 to 0.000215166
Heightened Def Con from 0.000215271 to 0.000215274
Heightened Def Con from 0.000215654 to 0.000215656
Heightened Def Con from 0.000215672 to 0.000215672
Heightened Def Con from 0.000215672 to 0.000215673
Heightened Def Con from 0.000215673 to 0.000215673
Heightened Def Con from 0.000215673 to 0.000215677
Heightened Def Con from 0.000217641 to 0.000217649
Heightened Def Con from 0.000217776 to 0.000217779
Heightened Def Con from 0.000217797 to 0.000217797
Heightened Def Con from 0.000217797 to 0.000217799
Heightened Def Con from 0.000217799 to 0.000217799
Heightened Def Con from 0.000217801 to 0.000217808
Heightened Def Con from 0.000218046 to 0.000218049
Heightened Def Con from 0.000218297 to 0.000218299
Heightened Def Con from 0.000218316 to 0.000218316
Heightened Def Con from 0.000218316 to 0.000218316
Heightened Def Con from 0.000218316 to 0.000218316
Heightened Def Con from 0.000218316 to 0.000218316
Heightened Def Con from 0.000218316 to 0.000218316
Heightened Def Con from 0.000218316 to 0.000218316
Heightened Def Con from 0.000218316 to 0.000218316
Heightened Def Con from 0.000218316 to 0.000218316
Heightened Def Con from 0.000218317 to 0.000218319
Heightened Def Con from 0.000219998 to 0.000220008
Heightened Def Con from 0.000220136 to 0.000220139
Heightened Def Con from 0.000220157 to 0.000220157
Heightened Def Con from 0.000220157 to 0.000220157
Heightened Def Con from 0.000220157 to 0.000220157
Heightened Def Con from 0.000220157 to 0.000220157
Heightened Def Con from 0.000220157 to 0.000220157
Heightened Def Con from 0.000220157 to 0.000220158
Heightened Def Con from 0.000220158 to 0.000220165
Heightened Def Con from 0.000220338 to 0.000220341
Heightened Def Con from 0.000220606 to 0.000220609
Heightened Def Con from 0.000220659 to 0.000220661
Heightened Def Con from 0.000220668 to 0.00022067
Heightened Def Con from 0.000220672 to 0.000220673
Heightened Def Con from 0.000220673 to 0.000220673
Heightened Def Con from 0.000220674 to 0.000220674
Heightened Def Con from 0.000220674 to 0.000220674
Heightened Def Con from 0.000220674 to 0.000220674
Heightened Def Con from 0.000220674 to 0.000220674
Heightened Def Con from 0.000220674 to 0.000220674
Heightened Def Con from 0.000220674 to 0.000220679
Heightened Def Con from 0.000222642 to 0.000222649
Heightened Def Con from 0.000222776 to 0.000222779
Heightened Def Con from 0.000222797 to 0.000222798
Heightened Def Con from 0.000222798 to 0.000222798
Heightened Def Con from 0.000222798 to 0.000222798
Heightened Def Con from 0.000222798 to 0.000222799
Heightened Def Con from 0.000222799 to 0.000222799
Heightened Def Con from 0.000222799 to 0.000222799
Heightened Def Con from 0.0002228 to 0.00022281
Heightened Def Con from 0.000222977 to 0.00022298
Heightened Def Con from 0.000223244 to 0.000223247
Heightened Def Con from 0.000223296 to 0.000223298
Heightened Def Con from 0.000223306 to 0.000223308
Heightened Def Con from 0.000223309 to 0.00022331
Heightened Def Con from 0.00022331 to 0.00022331
Heightened Def Con from 0.000223311 to 0.000223311
Heightened Def Con from 0.000223311 to 0.000223311
Heightened Def Con from 0.000223311 to 0.000223311
Heightened Def Con from 0.000223311 to 0.000223314
Heightened Def Con from 0.000225 to 0.000225009
Heightened Def Con from 0.000225136 to 0.000225139
Heightened Def Con from 0.000225157 to 0.000225157
Heightened Def Con from 0.000225158 to 0.000225158
Heightened Def Con from 0.000225158 to 0.000225158
Heightened Def Con from 0.000225158 to 0.000225158
Heightened Def Con from 0.000225158 to 0.000225166
Heightened Def Con from 0.000225271 to 0.000225274
Heightened Def Con from 0.000225405 to 0.000225408
Heightened Def Con from 0.00022566 to 0.000225662
Heightened Def Con from 0.000225672 to 0.000225673
Heightened Def Con from 0.000225673 to 0.000225673
Heightened Def Con from 0.000225673 to 0.000225674
Heightened Def Con from 0.000225674 to 0.000225674
Heightened Def Con from 0.000225674 to 0.000225674
Heightened Def Con from 0.000225674 to 0.000225674
Heightened Def Con from 0.000225674 to 0.000225674
Heightened Def Con from 0.000225674 to 0.000225679
Heightened Def Con from 0.000227641 to 0.000227648
Heightened Def Con from 0.000227797 to 0.000227797
Heightened Def Con from 0.000227797 to 0.000227797
Heightened Def Con from 0.000227798 to 0.000227798
Heightened Def Con from 0.000227798 to 0.000227798
Heightened Def Con from 0.000227798 to 0.000227798
Heightened Def Con from 0.000227798 to 0.000227799
Heightened Def Con from 0.000227799 to 0.000227799
Heightened Def Con from 0.000227799 to 0.000227799
Heightened Def Con from 0.000227799 to 0.00022781
Heightened Def Con from 0.000227976 to 0.000227979
Heightened Def Con from 0.000228302 to 0.000228304
Heightened Def Con from 0.000228308 to 0.00022831
Heightened Def Con from 0.000228311 to 0.000228311
Heightened Def Con from 0.000228311 to 0.000228315
Heightened Def Con from 0.000230001 to 0.000230009
Heightened Def Con from 0.000230137 to 0.00023014
Heightened Def Con from 0.000230158 to 0.000230158
Heightened Def Con from 0.000230158 to 0.000230158
Heightened Def Con from 0.000230158 to 0.000230158
Heightened Def Con from 0.000230158 to 0.000230158
Heightened Def Con from 0.000230158 to 0.000230159
Heightened Def Con from 0.000230159 to 0.000230165
Heightened Def Con from 0.000230269 to 0.000230272
Heightened Def Con from 0.000230336 to 0.000230339
Heightened Def Con from 0.000230537 to 0.00023054
Heightened Def Con from 0.00023065 to 0.000230652
Heightened Def Con from 0.000230668 to 0.000230669
Heightened Def Con from 0.000230669 to 0.000230669
Heightened Def Con from 0.00023067 to 0.00023067
Heightened Def Con from 0.00023067 to 0.000230671
Heightened Def Con from 0.000230671 to 0.000230671
Heightened Def Con from 0.000230671 to 0.000230671
Heightened Def Con from 0.000230671 to 0.000230671
Heightened Def Con from 0.000230671 to 0.000230671
Heightened Def Con from 0.000230671 to 0.000230672
Heightened Def Con from 0.000230672 to 0.000230676
Heightened Def Con from 0.000232641 to 0.000232648
Heightened Def Con from 0.000232795 to 0.000232795
Heightened Def Con from 0.000232796 to 0.000232797
Heightened Def Con from 0.000232797 to 0.000232797
Heightened Def Con from 0.000232797 to 0.000232797
Heightened Def Con from 0.000232797 to 0.000232808
Heightened Def Con from 0.000233042 to 0.000233045
Heightened Def Con from 0.000233176 to 0.000233179
Heightened Def Con from 0.000233242 to 0.000233245
Heightened Def Con from 0.000233294 to 0.000233296
Heightened Def Con from 0.000233304 to 0.000233306
Heightened Def Con from 0.000233307 to 0.000233308
Heightened Def Con from 0.000233308 to 0.000233308
Heightened Def Con from 0.000233308 to 0.000233308
Heightened Def Con from 0.000233308 to 0.000233308
Heightened Def Con from 0.000233309 to 0.000233309
Heightened Def Con from 0.000233309 to 0.000233309
Heightened Def Con from 0.000233309 to 0.000233309
Heightened Def Con from 0.000233309 to 0.000233312
Heightened Def Con from 0.000234999 to 0.000235009
Heightened Def Con from 0.000235136 to 0.000235139
Heightened Def Con from 0.000235157 to 0.000235157
Heightened Def Con from 0.000235157 to 0.000235157
Heightened Def Con from 0.000235157 to 0.000235157
Heightened Def Con from 0.000235157 to 0.000235157
Heightened Def Con from 0.000235157 to 0.000235157
Heightened Def Con from 0.000235158 to 0.000235158
Heightened Def Con from 0.000235158 to 0.000235158
Heightened Def Con from 0.000235158 to 0.000235158
Heightened Def Con from 0.000235158 to 0.000235158
Heightened Def Con from 0.000235158 to 0.000235158
Heightened Def Con from 0.000235158 to 0.000235158
Heightened Def Con from 0.000235158 to 0.000235158
Heightened Def Con from 0.000235158 to 0.000235165
Heightened Def Con from 0.00023527 to 0.000235273
Heightened Def Con from 0.000235404 to 0.000235407
Heightened Def Con from 0.000235471 to 0.000235474
Heightened Def Con from 0.000235669 to 0.00023567
Heightened Def Con from 0.00023567 to 0.000235671
Heightened Def Con from 0.000235671 to 0.000235671
Heightened Def Con from 0.000235671 to 0.000235672
Heightened Def Con from 0.000235672 to 0.000235672
Heightened Def Con from 0.000235672 to 0.000235675
Heightened Def Con from 0.000237641 to 0.000237648
Heightened Def Con from 0.000237709 to 0.000237712
Heightened Def Con from 0.000237792 to 0.000237795
Heightened Def Con from 0.000237796 to 0.000237796
Heightened Def Con from 0.000237796 to 0.000237796
Heightened Def Con from 0.000237796 to 0.000237796
Heightened Def Con from 0.000237797 to 0.000237797
Heightened Def Con from 0.000237797 to 0.000237797
Heightened Def Con from 0.000237797 to 0.000237808
Heightened Def Con from 0.000238295 to 0.000238297
Heightened Def Con from 0.000238307 to 0.000238308
Heightened Def Con from 0.000238308 to 0.000238308
Heightened Def Con from 0.000238308 to 0.000238308
Heightened Def Con from 0.000238308 to 0.000238308
Heightened Def Con from 0.000238308 to 0.000238308
Heightened Def Con from 0.000238308 to 0.000238308
Heightened Def Con from 0.000238308 to 0.000238308
Heightened Def Con from 0.000238308 to 0.000238308
Heightened Def Con from 0.000238308 to 0.000238308
Heightened Def Con from 0.000238308 to 0.000238308
Heightened Def Con from 0.000238308 to 0.000238308
Heightened Def Con from 0.000238308 to 0.000238308
Heightened Def Con from 0.000238308 to 0.000238308
Heightened Def Con from 0.000238308 to 0.000238308
Heightened Def Con from 0.000238308 to 0.000238308
Heightened Def Con from 0.000238309 to 0.000238309
Heightened Def Con from 0.000238309 to 0.000238309
Heightened Def Con from 0.000238309 to 0.000238309
Heightened Def Con from 0.000238309 to 0.000238309
Heightened Def Con from 0.000238309 to 0.000238313
Heightened Def Con from 0.000239999 to 0.000240008
Heightened Def Con from 0.000240136 to 0.000240139
Heightened Def Con from 0.000240157 to 0.000240157
Heightened Def Con from 0.000240157 to 0.000240157
Heightened Def Con from 0.000240157 to 0.000240157
Heightened Def Con from 0.000240157 to 0.000240157
Heightened Def Con from 0.000240157 to 0.000240157
Heightened Def Con from 0.000240157 to 0.000240157
Heightened Def Con from 0.000240157 to 0.000240157
Heightened Def Con from 0.000240157 to 0.000240157
Heightened Def Con from 0.000240157 to 0.000240157
Heightened Def Con from 0.000240157 to 0.000240158
Heightened Def Con from 0.000240158 to 0.000240165
Heightened Def Con from 0.00024047 to 0.000240473
Heightened Def Con from 0.000240663 to 0.000240665
Heightened Def Con from 0.000240669 to 0.00024067
Heightened Def Con from 0.00024067 to 0.000240671
Heightened Def Con from 0.000240672 to 0.000240672
Heightened Def Con from 0.000240672 to 0.000240677
Heightened Def Con from 0.000242638 to 0.000242648
Heightened Def Con from 0.000242776 to 0.000242779
Heightened Def Con from 0.000242796 to 0.000242796
Heightened Def Con from 0.000242796 to 0.000242797
Heightened Def Con from 0.000242797 to 0.000242797
Heightened Def Con from 0.000242797 to 0.000242797
Heightened Def Con from 0.000242798 to 0.000242798
Heightened Def Con from 0.000242798 to 0.000242798
Heightened Def Con from 0.000242798 to 0.000242798
Heightened Def Con from 0.000242798 to 0.000242798
Heightened Def Con from 0.000242799 to 0.000242799
Heightened Def Con from 0.000242799 to 0.00024281
Heightened Def Con from 0.000242978 to 0.000242981
Heightened Def Con from 0.000243296 to 0.000243298
Heightened Def Con from 0.000243306 to 0.000243308
Heightened Def Con from 0.000243311 to 0.000243311
Heightened Def Con from 0.000243311 to 0.000243311
Heightened Def Con from 0.000243311 to 0.000243311
Heightened Def Con from 0.000243311 to 0.000243311
Heightened Def Con from 0.000243311 to 0.000243311
Heightened Def Con from 0.000243312 to 0.000243312
Heightened Def Con from 0.000243312 to 0.000243312
Heightened Def Con from 0.000243312 to 0.000243312
Heightened Def Con from 0.000243312 to 0.000243312
Heightened Def Con from 0.000243312 to 0.000243312
Heightened Def Con from 0.000243312 to 0.000243312
Heightened Def Con from 0.000243312 to 0.000243316
Heightened Def Con from 0.000245001 to 0.000245009
Heightened Def Con from 0.000245071 to 0.000245074
Heightened Def Con from 0.000245154 to 0.000245157
Heightened Def Con from 0.000245157 to 0.000245157
Heightened Def Con from 0.000245157 to 0.000245157
Heightened Def Con from 0.000245157 to 0.000245157
Heightened Def Con from 0.000245157 to 0.000245157
Heightened Def Con from 0.000245157 to 0.000245157
Heightened Def Con from 0.000245157 to 0.000245157
Heightened Def Con from 0.000245157 to 0.000245157
Heightened Def Con from 0.000245158 to 0.000245158
Heightened Def Con from 0.000245158 to 0.000245158
Heightened Def Con from 0.000245158 to 0.000245158
Heightened Def Con from 0.000245158 to 0.000245158
Heightened Def Con from 0.000245158 to 0.000245165
Heightened Def Con from 0.000245205 to 0.000245208
Heightened Def Con from 0.000245538 to 0.000245541
Heightened Def Con from 0.000245651 to 0.000245653
Heightened Def Con from 0.000245669 to 0.00024567
Heightened Def Con from 0.000245671 to 0.000245671
Heightened Def Con from 0.000245671 to 0.000245672
Heightened Def Con from 0.000245672 to 0.000245672
Heightened Def Con from 0.000245672 to 0.000245676
Heightened Def Con from 0.000247641 to 0.000247649
Heightened Def Con from 0.000247776 to 0.000247779
Heightened Def Con from 0.000247797 to 0.000247797
Heightened Def Con from 0.000247798 to 0.000247798
Heightened Def Con from 0.000247798 to 0.000247798
Heightened Def Con from 0.000247799 to 0.000247799
Heightened Def Con from 0.000247799 to 0.00024781
Heightened Def Con from 0.000248044 to 0.000248047
Heightened Def Con from 0.000248296 to 0.000248298
Heightened Def Con from 0.000248306 to 0.000248308
Heightened Def Con from 0.000248311 to 0.000248311
Heightened Def Con from 0.000248311 to 0.000248311
Heightened Def Con from 0.000248311 to 0.000248311
Heightened Def Con from 0.000248311 to 0.000248311
Heightened Def Con from 0.000248311 to 0.000248311
Heightened Def Con from 0.000248311 to 0.000248311
Heightened Def Con from 0.000248311 to 0.000248311
Heightened Def Con from 0.000248311 to 0.000248311
Heightened Def Con from 0.000248311 to 0.000248311
Heightened Def Con from 0.000248311 to 0.000248311
Heightened Def Con from 0.000248312 to 0.000248312
Heightened Def Con from 0.000248312 to 0.000248317
Heightened Def Con from 0.00025 to 0.000250008
Heightened Def Con from 0.000250136 to 0.000250139
Heightened Def Con from 0.000250156 to 0.000250156
Heightened Def Con from 0.000250157 to 0.000250157
Heightened Def Con from 0.000250157 to 0.000250157
Heightened Def Con from 0.000250157 to 0.000250157
Heightened Def Con from 0.000250157 to 0.000250157
Heightened Def Con from 0.000250157 to 0.000250165
Heightened Def Con from 0.00025027 to 0.000250273
Heightened Def Con from 0.000250537 to 0.00025054
Heightened Def Con from 0.00025065 to 0.000250652
Heightened Def Con from 0.000250669 to 0.00025067
Heightened Def Con from 0.00025067 to 0.00025067
Heightened Def Con from 0.00025067 to 0.000250671
Heightened Def Con from 0.000250671 to 0.000250672
Heightened Def Con from 0.000250672 to 0.000250672
Heightened Def Con from 0.000250672 to 0.000250675
Heightened Def Con from 0.000252641 to 0.000252649
Heightened Def Con from 0.000252777 to 0.00025278
Heightened Def Con from 0.000252797 to 0.000252798
Heightened Def Con from 0.000252798 to 0.000252798
Heightened Def Con from 0.000252798 to 0.000252798
Heightened Def Con from 0.000252798 to 0.000252798
Heightened Def Con from 0.000252799 to 0.000252799
Heightened Def Con from 0.0002528 to 0.0002528
Heightened Def Con from 0.0002528 to 0.000252811
Heightened Def Con from 0.000252844 to 0.000252847
Heightened Def Con from 0.000252978 to 0.000252981
Heightened Def Con from 0.000253045 to 0.000253048
Heightened Def Con from 0.000253112 to 0.000253115
Heightened Def Con from 0.000253179 to 0.000253182
Heightened Def Con from 0.000253245 to 0.000253248
Heightened Def Con from 0.000253298 to 0.0002533
Heightened Def Con from 0.000253312 to 0.000253312
Heightened Def Con from 0.000253312 to 0.000253312
Heightened Def Con from 0.000253312 to 0.000253312
Heightened Def Con from 0.000253312 to 0.000253312
Heightened Def Con from 0.000253312 to 0.000253312
Heightened Def Con from 0.000253312 to 0.000253312
Heightened Def Con from 0.000253312 to 0.000253312
Heightened Def Con from 0.000253312 to 0.000253312
Heightened Def Con from 0.000253312 to 0.000253315
Heightened Def Con from 0.000255001 to 0.000255009
Heightened Def Con from 0.00025507 to 0.000255073
Heightened Def Con from 0.000255153 to 0.000255156
Heightened Def Con from 0.000255157 to 0.000255157
Heightened Def Con from 0.000255157 to 0.000255157
Heightened Def Con from 0.000255157 to 0.000255157
Heightened Def Con from 0.000255157 to 0.000255157
Heightened Def Con from 0.000255157 to 0.000255157
Heightened Def Con from 0.000255157 to 0.000255157
Heightened Def Con from 0.000255157 to 0.000255158
Heightened Def Con from 0.000255158 to 0.000255165
Heightened Def Con from 0.000255673 to 0.000255673
Heightened Def Con from 0.000255674 to 0.000255675
Heightened Def Con from 0.000255675 to 0.000255675
Heightened Def Con from 0.000255675 to 0.000255679
Heightened Def Con from 0.000257641 to 0.000257649
Heightened Def Con from 0.000257709 to 0.000257712
Heightened Def Con from 0.000257793 to 0.000257796
Heightened Def Con from 0.000257798 to 0.000257799
Heightened Def Con from 0.000257799 to 0.000257799
Heightened Def Con from 0.000257799 to 0.000257799
Heightened Def Con from 0.0002578 to 0.000257811
Heightened Def Con from 0.000258109 to 0.000258112
Heightened Def Con from 0.000258289 to 0.000258291
Heightened Def Con from 0.000258307 to 0.000258309
Heightened Def Con from 0.000258309 to 0.000258309
Heightened Def Con from 0.000258309 to 0.000258309
Heightened Def Con from 0.000258309 to 0.000258309
Heightened Def Con from 0.000258309 to 0.000258309
Heightened Def Con from 0.000258309 to 0.000258309
Heightened Def Con from 0.00025831 to 0.00025831
Heightened Def Con from 0.00025831 to 0.00025831
Heightened Def Con from 0.00025831 to 0.00025831
Heightened Def Con from 0.00025831 to 0.00025831
Heightened Def Con from 0.00025831 to 0.00025831
Heightened Def Con from 0.00025831 to 0.00025831
Heightened Def Con from 0.00025831 to 0.000258313
Heightened Def Con from 0.00026 to 0.000260008
Heightened Def Con from 0.000260136 to 0.000260139
Heightened Def Con from 0.000260157 to 0.000260157
Heightened Def Con from 0.000260157 to 0.000260164
Heightened Def Con from 0.000260337 to 0.00026034
Heightened Def Con from 0.000260653 to 0.000260655
Heightened Def Con from 0.000260672 to 0.000260672
Heightened Def Con from 0.000260672 to 0.000260672
Heightened Def Con from 0.000260672 to 0.000260673
Heightened Def Con from 0.000260673 to 0.000260673
Heightened Def Con from 0.000260673 to 0.000260677
Heightened Def Con from 0.00026264 to 0.000262649
Heightened Def Con from 0.000262777 to 0.00026278
Heightened Def Con from 0.000262798 to 0.000262798
Heightened Def Con from 0.000262799 to 0.000262799
Heightened Def Con from 0.000262799 to 0.0002628
Heightened Def Con from 0.0002628 to 0.0002628
Heightened Def Con from 0.000262801 to 0.00026281
Heightened Def Con from 0.00026318 to 0.000263183
Heightened Def Con from 0.000263299 to 0.000263301
Heightened Def Con from 0.000263309 to 0.000263311
Heightened Def Con from 0.000263312 to 0.000263313
Heightened Def Con from 0.000263313 to 0.000263313
Heightened Def Con from 0.000263314 to 0.000263314
Heightened Def Con from 0.000263314 to 0.000263314
Heightened Def Con from 0.000263314 to 0.000263314
Heightened Def Con from 0.000263314 to 0.000263314
Heightened Def Con from 0.000263314 to 0.000263314
Heightened Def Con from 0.000263314 to 0.000263318
Heightened Def Con from 0.000265 to 0.000265008
Heightened Def Con from 0.000265136 to 0.000265139
Heightened Def Con from 0.000265157 to 0.000265157
Heightened Def Con from 0.000265157 to 0.000265157
Heightened Def Con from 0.000265157 to 0.000265157
Heightened Def Con from 0.000265157 to 0.000265157
Heightened Def Con from 0.000265157 to 0.000265157
Heightened Def Con from 0.000265157 to 0.000265157
Heightened Def Con from 0.000265157 to 0.000265157
Heightened Def Con from 0.000265157 to 0.000265157
Heightened Def Con from 0.000265157 to 0.000265157
Heightened Def Con from 0.000265157 to 0.000265158
Heightened Def Con from 0.000265158 to 0.000265158
Heightened Def Con from 0.000265158 to 0.000265158
Heightened Def Con from 0.000265158 to 0.000265165
Heightened Def Con from 0.000265538 to 0.000265541
Heightened Def Con from 0.000265657 to 0.000265659
Heightened Def Con from 0.000265672 to 0.000265672
Heightened Def Con from 0.000265672 to 0.000265672
Heightened Def Con from 0.000265672 to 0.000265673
Heightened Def Con from 0.000265673 to 0.000265673
Heightened Def Con from 0.000265673 to 0.000265673
Heightened Def Con from 0.000265673 to 0.000265673
Heightened Def Con from 0.000265673 to 0.000265673
Heightened Def Con from 0.000265673 to 0.000265673
Heightened Def Con from 0.000265673 to 0.000265673
Heightened Def Con from 0.000265674 to 0.000265678
Heightened Def Con from 0.000267642 to 0.000267648
Heightened Def Con from 0.000267776 to 0.000267779
Heightened Def Con from 0.000267796 to 0.000267796
Heightened Def Con from 0.000267797 to 0.000267797
Heightened Def Con from 0.000267797 to 0.000267797
Heightened Def Con from 0.000267797 to 0.000267797
Heightened Def Con from 0.000267798 to 0.000267798
Heightened Def Con from 0.000267799 to 0.000267799
Heightened Def Con from 0.0002678 to 0.000267808
Heightened Def Con from 0.000268112 to 0.000268115
Heightened Def Con from 0.000268246 to 0.000268249
Heightened Def Con from 0.000268298 to 0.0002683
Heightened Def Con from 0.000268307 to 0.000268309
Heightened Def Con from 0.000268313 to 0.000268313
Heightened Def Con from 0.000268313 to 0.000268313
Heightened Def Con from 0.000268313 to 0.000268313
Heightened Def Con from 0.000268313 to 0.000268313
Heightened Def Con from 0.000268313 to 0.000268313
Heightened Def Con from 0.000268313 to 0.000268313
Heightened Def Con from 0.000268313 to 0.000268317
Heightened Def Con from 0.000270001 to 0.000270009
Heightened Def Con from 0.000270071 to 0.000270074
Heightened Def Con from 0.000270158 to 0.000270158
Heightened Def Con from 0.000270158 to 0.000270158
Heightened Def Con from 0.000270158 to 0.000270158
Heightened Def Con from 0.000270158 to 0.000270158
Heightened Def Con from 0.000270158 to 0.000270158
Heightened Def Con from 0.000270158 to 0.000270158
Heightened Def Con from 0.000270158 to 0.000270158
Heightened Def Con from 0.000270158 to 0.000270158
Heightened Def Con from 0.000270158 to 0.000270158
Heightened Def Con from 0.000270158 to 0.000270158
Heightened Def Con from 0.000270158 to 0.000270158
Heightened Def Con from 0.000270158 to 0.000270158
Heightened Def Con from 0.000270158 to 0.000270158
Heightened Def Con from 0.000270158 to 0.000270158
Heightened Def Con from 0.000270158 to 0.000270159
Heightened Def Con from 0.000270159 to 0.000270166
Heightened Def Con from 0.000270667 to 0.000270669
Heightened Def Con from 0.000270677 to 0.000270677
Heightened Def Con from 0.000270677 to 0.000270678
Heightened Def Con from 0.000270678 to 0.000270678
Heightened Def Con from 0.000270678 to 0.000270678
Heightened Def Con from 0.000270678 to 0.000270683
Heightened Def Con from 0.000272641 to 0.000272649
Heightened Def Con from 0.000272795 to 0.000272795
Heightened Def Con from 0.000272795 to 0.000272796
Heightened Def Con from 0.000272796 to 0.000272797
Heightened Def Con from 0.000272797 to 0.000272797
Heightened Def Con from 0.000272797 to 0.000272807
Heightened Def Con from 0.000273048 to 0.000273051
Heightened Def Con from 0.000273306 to 0.000273308
Heightened Def Con from 0.000273312 to 0.000273314
Heightened Def Con from 0.000273314 to 0.000273314
Heightened Def Con from 0.000273315 to 0.000273315
Heightened Def Con from 0.000273315 to 0.000273315
Heightened Def Con from 0.000273315 to 0.000273315
Heightened Def Con from 0.000273315 to 0.000273315
Heightened Def Con from 0.000273315 to 0.000273315
Heightened Def Con from 0.000273315 to 0.000273319
Heightened Def Con from 0.000275001 to 0.000275009
Heightened Def Con from 0.000275137 to 0.00027514
Heightened Def Con from 0.000275157 to 0.000275157
Heightened Def Con from 0.000275157 to 0.000275157
Heightened Def Con from 0.000275157 to 0.000275157
Heightened Def Con from 0.000275157 to 0.000275157
Heightened Def Con from 0.000275157 to 0.000275157
Heightened Def Con from 0.000275157 to 0.000275157
Heightened Def Con from 0.000275157 to 0.000275157
Heightened Def Con from 0.000275157 to 0.000275157
Heightened Def Con from 0.000275157 to 0.000275157
Heightened Def Con from 0.000275158 to 0.000275158
Heightened Def Con from 0.000275158 to 0.000275158
Heightened Def Con from 0.000275158 to 0.000275158
Heightened Def Con from 0.000275158 to 0.000275158
Heightened Def Con from 0.000275158 to 0.000275158
Heightened Def Con from 0.000275158 to 0.000275165
Heightened Def Con from 0.00027547 to 0.000275473
Heightened Def Con from 0.000275604 to 0.000275607
Heightened Def Con from 0.000275656 to 0.000275658
Heightened Def Con from 0.000275666 to 0.000275668
Heightened Def Con from 0.00027567 to 0.00027567
Heightened Def Con from 0.00027567 to 0.00027567
Heightened Def Con from 0.00027567 to 0.000275672
Heightened Def Con from 0.000275672 to 0.000275672
Heightened Def Con from 0.000275672 to 0.000275677
Heightened Def Con from 0.000277641 to 0.000277649
Heightened Def Con from 0.000277791 to 0.000277794
Heightened Def Con from 0.000277795 to 0.000277795
Heightened Def Con from 0.000277795 to 0.000277796
Heightened Def Con from 0.000277796 to 0.000277796
Heightened Def Con from 0.000277796 to 0.000277796
Heightened Def Con from 0.000277796 to 0.000277796
Heightened Def Con from 0.000277797 to 0.000277797
Heightened Def Con from 0.000277797 to 0.000277797
Heightened Def Con from 0.000277797 to 0.000277808
Heightened Def Con from 0.000278295 to 0.000278297
Heightened Def Con from 0.000278305 to 0.000278307
Heightened Def Con from 0.000278309 to 0.000278309
Heightened Def Con from 0.000278309 to 0.000278309
Heightened Def Con from 0.000278309 to 0.000278309
Heightened Def Con from 0.000278309 to 0.000278309
Heightened Def Con from 0.000278309 to 0.000278309
Heightened Def Con from 0.000278309 to 0.000278309
Heightened Def Con from 0.000278309 to 0.000278312
Heightened Def Con from 0.00028 to 0.000280008
Heightened Def Con from 0.000280136 to 0.000280139
Heightened Def Con from 0.000280157 to 0.000280157
Heightened Def Con from 0.000280157 to 0.000280157
Heightened Def Con from 0.000280157 to 0.000280157
Heightened Def Con from 0.000280157 to 0.000280157
Heightened Def Con from 0.000280157 to 0.000280157
Heightened Def Con from 0.000280157 to 0.000280157
Heightened Def Con from 0.000280157 to 0.000280157
Heightened Def Con from 0.000280157 to 0.000280157
Heightened Def Con from 0.000280157 to 0.000280157
Heightened Def Con from 0.000280157 to 0.000280157
Heightened Def Con from 0.000280157 to 0.000280157
Heightened Def Con from 0.000280157 to 0.000280157
Heightened Def Con from 0.000280157 to 0.000280157
Heightened Def Con from 0.000280157 to 0.000280157
Heightened Def Con from 0.000280157 to 0.000280165
Heightened Def Con from 0.00028027 to 0.000280273
Heightened Def Con from 0.000280403 to 0.000280406
Heightened Def Con from 0.000280651 to 0.000280653
Heightened Def Con from 0.00028067 to 0.00028067
Heightened Def Con from 0.00028067 to 0.000280671
Heightened Def Con from 0.000280672 to 0.000280672
Heightened Def Con from 0.000280672 to 0.000280676
Heightened Def Con from 0.000282641 to 0.000282649
Heightened Def Con from 0.000282795 to 0.000282795
Heightened Def Con from 0.000282795 to 0.000282796
Heightened Def Con from 0.000282796 to 0.000282796
Heightened Def Con from 0.000282796 to 0.000282797
Heightened Def Con from 0.000282797 to 0.000282797
Heightened Def Con from 0.000282797 to 0.000282807
Heightened Def Con from 0.000282844 to 0.000282847
Heightened Def Con from 0.000283179 to 0.000283182
Heightened Def Con from 0.000283292 to 0.000283294
Heightened Def Con from 0.000283311 to 0.000283311
Heightened Def Con from 0.000283312 to 0.000283312
Heightened Def Con from 0.000283312 to 0.000283312
Heightened Def Con from 0.000283312 to 0.000283312
Heightened Def Con from 0.000283312 to 0.000283312
Heightened Def Con from 0.000283312 to 0.000283312
Heightened Def Con from 0.000283312 to 0.000283312
Heightened Def Con from 0.000283312 to 0.000283312
Heightened Def Con from 0.000283312 to 0.000283312
Heightened Def Con from 0.000283312 to 0.000283312
Heightened Def Con from 0.000283312 to 0.000283317
Heightened Def Con from 0.000285 to 0.000285009
Heightened Def Con from 0.000285136 to 0.000285139
Heightened Def Con from 0.000285157 to 0.000285157
Heightened Def Con from 0.000285157 to 0.000285157
Heightened Def Con from 0.000285157 to 0.000285157
Heightened Def Con from 0.000285157 to 0.000285157
Heightened Def Con from 0.000285158 to 0.000285158
Heightened Def Con from 0.000285158 to 0.000285158
Heightened Def Con from 0.000285158 to 0.000285158
Heightened Def Con from 0.000285158 to 0.000285158
Heightened Def Con from 0.000285158 to 0.000285158
Heightened Def Con from 0.000285158 to 0.000285166
Heightened Def Con from 0.000285271 to 0.000285274
Heightened Def Con from 0.000285536 to 0.000285539
Heightened Def Con from 0.000285663 to 0.000285665
Heightened Def Con from 0.000285668 to 0.000285668
Heightened Def Con from 0.000285669 to 0.000285669
Heightened Def Con from 0.000285669 to 0.00028567
Heightened Def Con from 0.00028567 to 0.00028567
Heightened Def Con from 0.00028567 to 0.00028567
Heightened Def Con from 0.00028567 to 0.00028567
Heightened Def Con from 0.00028567 to 0.00028567
Heightened Def Con from 0.00028567 to 0.00028567
Heightened Def Con from 0.00028567 to 0.00028567
Heightened Def Con from 0.00028567 to 0.000285671
Heightened Def Con from 0.000285671 to 0.000285676
Heightened Def Con from 0.000287582 to 0.000287584
Heightened Def Con from 0.000287641 to 0.000287648
Heightened Def Con from 0.000287778 to 0.000287781
Heightened Def Con from 0.000287799 to 0.000287799
Heightened Def Con from 0.000287799 to 0.0002878
Heightened Def Con from 0.0002878 to 0.000287801
Heightened Def Con from 0.000287801 to 0.000287801
Heightened Def Con from 0.000287801 to 0.000287812
Heightened Def Con from 0.0002883 to 0.000288302
Heightened Def Con from 0.00028831 to 0.000288312
Heightened Def Con from 0.000288315 to 0.000288315
Heightened Def Con from 0.000288315 to 0.000288315
Heightened Def Con from 0.000288316 to 0.000288316
Heightened Def Con from 0.000288316 to 0.000288316
Heightened Def Con from 0.000288316 to 0.000288316
Heightened Def Con from 0.000288316 to 0.000288316
Heightened Def Con from 0.000288316 to 0.000288316
Heightened Def Con from 0.000288316 to 0.000288316
Heightened Def Con from 0.000288316 to 0.000288316
Heightened Def Con from 0.000288316 to 0.000288316
Heightened Def Con from 0.000288316 to 0.000288316
Heightened Def Con from 0.000288316 to 0.000288316
Heightened Def Con from 0.000288316 to 0.000288317
Heightened Def Con from 0.000288317 to 0.00028832
Heightened Def Con from 0.000290001 to 0.000290009
Heightened Def Con from 0.000290137 to 0.00029014
Heightened Def Con from 0.000290157 to 0.000290157
Heightened Def Con from 0.000290157 to 0.000290157
Heightened Def Con from 0.000290158 to 0.000290158
Heightened Def Con from 0.000290158 to 0.000290158
Heightened Def Con from 0.000290158 to 0.000290158
Heightened Def Con from 0.000290158 to 0.000290158
Heightened Def Con from 0.000290158 to 0.000290165
Heightened Def Con from 0.000290271 to 0.000290274
Heightened Def Con from 0.000290405 to 0.000290408
Heightened Def Con from 0.000290472 to 0.000290475
Heightened Def Con from 0.000290671 to 0.000290671
Heightened Def Con from 0.000290672 to 0.000290673
Heightened Def Con from 0.000290673 to 0.000290673
Heightened Def Con from 0.000290673 to 0.000290677
Heightened Def Con from 0.00029264 to 0.000292648
Heightened Def Con from 0.000292776 to 0.000292779
Heightened Def Con from 0.000292797 to 0.000292797
Heightened Def Con from 0.000292797 to 0.000292799
Heightened Def Con from 0.000292799 to 0.000292799
Heightened Def Con from 0.000292799 to 0.000292809
Heightened Def Con from 0.000293247 to 0.00029325
Heightened Def Con from 0.000293299 to 0.000293301
Heightened Def Con from 0.000293314 to 0.000293314
Heightened Def Con from 0.000293314 to 0.000293314
Heightened Def Con from 0.000293314 to 0.000293314
Heightened Def Con from 0.000293314 to 0.000293314
Heightened Def Con from 0.000293314 to 0.000293314
Heightened Def Con from 0.000293314 to 0.000293314
Heightened Def Con from 0.000293314 to 0.000293314
Heightened Def Con from 0.000293314 to 0.000293314
Heightened Def Con from 0.000293314 to 0.000293314
Heightened Def Con from 0.000295 to 0.000295008
Heightened Def Con from 0.000295136 to 0.000295139
Heightened Def Con from 0.000295157 to 0.000295157
Heightened Def Con from 0.000295157 to 0.000295157
Heightened Def Con from 0.000295157 to 0.000295157
Heightened Def Con from 0.000295157 to 0.000295157
Heightened Def Con from 0.000295157 to 0.000295157
Heightened Def Con from 0.000295157 to 0.000295157
Heightened Def Con from 0.000295157 to 0.000295157
Heightened Def Con from 0.000295157 to 0.000295157
Heightened Def Con from 0.000295157 to 0.000295157
Heightened Def Con from 0.000295157 to 0.000295157
Heightened Def Con from 0.000295157 to 0.000295157
Heightened Def Con from 0.000295157 to 0.000295157
Heightened Def Con from 0.000295157 to 0.000295157
Heightened Def Con from 0.000295157 to 0.000295157
Heightened Def Con from 0.000295157 to 0.000295157
Heightened Def Con from 0.000295157 to 0.000295157
Heightened Def Con from 0.000295157 to 0.000295157
Heightened Def Con from 0.000295157 to 0.000295157
Heightened Def Con from 0.000295157 to 0.000295157
Heightened Def Con from 0.000295157 to 0.000295157
Heightened Def Con from 0.000295157 to 0.000295157
Heightened Def Con from 0.000295157 to 0.000295158
Heightened Def Con from 0.000295158 to 0.000295166
Heightened Def Con from 0.00029527 to 0.000295273
Heightened Def Con from 0.000295538 to 0.000295541
Heightened Def Con from 0.000295605 to 0.000295608
Heightened Def Con from 0.000295668 to 0.00029567
Heightened Def Con from 0.000295671 to 0.000295672
Heightened Def Con from 0.000295672 to 0.000295672
Heightened Def Con from 0.000295672 to 0.000295673
Heightened Def Con from 0.000295673 to 0.000295673
Heightened Def Con from 0.000295673 to 0.000295677
Heightened Def Con from 0.000297641 to 0.000297649
Heightened Def Con from 0.000297791 to 0.000297794
Heightened Def Con from 0.000297795 to 0.000297796
Heightened Def Con from 0.000297796 to 0.000297797
Heightened Def Con from 0.000297797 to 0.000297797
Heightened Def Con from 0.000297797 to 0.000297797
Heightened Def Con from 0.000297797 to 0.000297797
Heightened Def Con from 0.000297797 to 0.000297797
Heightened Def Con from 0.000297797 to 0.000297797
Heightened Def Con from 0.000297797 to 0.000297797
Heightened Def Con from 0.000297797 to 0.000297797
Heightened Def Con from 0.000297797 to 0.000297797
Heightened Def Con from 0.000297797 to 0.000297807
Heightened Def Con from 0.000298044 to 0.000298047
Heightened Def Con from 0.000298178 to 0.000298181
Heightened Def Con from 0.000298305 to 0.000298307
Heightened Def Con from 0.00029831 to 0.000298311
Heightened Def Con from 0.000298311 to 0.000298311
Heightened Def Con from 0.000298311 to 0.000298311
Heightened Def Con from 0.000298311 to 0.000298312
Heightened Def Con from 0.000298312 to 0.000298312
Heightened Def Con from 0.000298312 to 0.000298312
Heightened Def Con from 0.000298312 to 0.000298312
Heightened Def Con from 0.000298312 to 0.000298312
Heightened Def Con from 0.000298312 to 0.000298315
Heightened Def Con from 0.000300001 to 0.000300009
Heightened Def Con from 0.000300137 to 0.00030014
Heightened Def Con from 0.000300158 to 0.000300158
Heightened Def Con from 0.000300158 to 0.000300158
Heightened Def Con from 0.000300158 to 0.000300158
Heightened Def Con from 0.000300158 to 0.000300158
Heightened Def Con from 0.000300158 to 0.000300158
Heightened Def Con from 0.000300158 to 0.000300158
Heightened Def Con from 0.000300158 to 0.000300158
Heightened Def Con from 0.000300158 to 0.000300158
Heightened Def Con from 0.000300158 to 0.000300158
Heightened Def Con from 0.000300158 to 0.000300158
Heightened Def Con from 0.000300158 to 0.000300158
Heightened Def Con from 0.000300158 to 0.000300158
Heightened Def Con from 0.000300158 to 0.000300158
Heightened Def Con from 0.000300158 to 0.000300158
Heightened Def Con from 0.000300158 to 0.000300158
Heightened Def Con from 0.000300158 to 0.000300158
Heightened Def Con from 0.000300159 to 0.000300159
Heightened Def Con from 0.000300159 to 0.000300159
Heightened Def Con from 0.000300159 to 0.000300164
Heightened Def Con from 0.00030027 to 0.000300273
Heightened Def Con from 0.000300404 to 0.000300407
Heightened Def Con from 0.000300471 to 0.000300474
Heightened Def Con from 0.000300652 to 0.000300654
Heightened Def Con from 0.00030067 to 0.000300671
Heightened Def Con from 0.000300671 to 0.000300671
Heightened Def Con from 0.000300671 to 0.000300671
Heightened Def Con from 0.000300671 to 0.000300671
Heightened Def Con from 0.000300671 to 0.000300671
Heightened Def Con from 0.000300671 to 0.000300671
Heightened Def Con from 0.000300671 to 0.000300672
Heightened Def Con from 0.000300672 to 0.000300672
Heightened Def Con from 0.000300672 to 0.000300672
Heightened Def Con from 0.000300672 to 0.000300672
Heightened Def Con from 0.000300672 to 0.000300672
Heightened Def Con from 0.000300672 to 0.000300672
Heightened Def Con from 0.000300672 to 0.000300673
Heightened Def Con from 0.000300673 to 0.000300673
Heightened Def Con from 0.000300673 to 0.000300678
Heightened Def Con from 0.000302577 to 0.000302579
Heightened Def Con from 0.000302641 to 0.000302649
Heightened Def Con from 0.000302777 to 0.00030278
Heightened Def Con from 0.000302797 to 0.000302798
Heightened Def Con from 0.000302798 to 0.000302798
Heightened Def Con from 0.000302798 to 0.000302798
Heightened Def Con from 0.000302798 to 0.000302798
Heightened Def Con from 0.000302798 to 0.000302798
Heightened Def Con from 0.000302798 to 0.000302798
Heightened Def Con from 0.000302799 to 0.000302799
Heightened Def Con from 0.000302799 to 0.0003028
Heightened Def Con from 0.0003028 to 0.0003028
Heightened Def Con from 0.0003028 to 0.000302811
Heightened Def Con from 0.000302844 to 0.000302847
Heightened Def Con from 0.000302978 to 0.000302981
Heightened Def Con from 0.000303297 to 0.000303299
Heightened Def Con from 0.000303306 to 0.000303308
Heightened Def Con from 0.000303312 to 0.000303312
Heightened Def Con from 0.000303312 to 0.000303312
Heightened Def Con from 0.000303312 to 0.000303312
Heightened Def Con from 0.000303312 to 0.000303312
Heightened Def Con from 0.000303312 to 0.000303312
[...]
Heightened Def Con from 0.000450472 to 0.000450475
Heightened Def Con from 0.000450539 to 0.000450542
Heightened Def Con from 0.000450663 to 0.000450665
Heightened Def Con from 0.000450672 to 0.000450674
Heightened Def Con from 0.000450674 to 0.000450674
Heightened Def Con from 0.000450674 to 0.000450679
Heightened Def Con from 0.000452641 to 0.000452648
Heightened Def Con from 0.000452788 to 0.000452789
Heightened Def Con from 0.000452789 to 0.000452789
Heightened Def Con from 0.000452789 to 0.00045279
Heightened Def Con from 0.00045279 to 0.00045279
Heightened Def Con from 0.00045279 to 0.00045279
Heightened Def Con from 0.00045279 to 0.00045279
Heightened Def Con from 0.000452791 to 0.000452801
Heightened Def Con from 0.000452979 to 0.000452982
Heightened Def Con from 0.000453113 to 0.000453116
Heightened Def Con from 0.000453312 to 0.000453312
Heightened Def Con from 0.000453313 to 0.000453313
Heightened Def Con from 0.000453313 to 0.000453313
Heightened Def Con from 0.000453313 to 0.000453313
Heightened Def Con from 0.000453313 to 0.000453313
Heightened Def Con from 0.000453313 to 0.000453313
Heightened Def Con from 0.000453313 to 0.000453313
Heightened Def Con from 0.000453313 to 0.000453313
Heightened Def Con from 0.000453313 to 0.000453313
Heightened Def Con from 0.000453313 to 0.000453317
Heightened Def Con from 0.000455001 to 0.000455009
Heightened Def Con from 0.000455138 to 0.000455141
Heightened Def Con from 0.000455158 to 0.000455158
Heightened Def Con from 0.000455158 to 0.000455158
Heightened Def Con from 0.000455158 to 0.000455158
Heightened Def Con from 0.000455158 to 0.000455158
Heightened Def Con from 0.000455158 to 0.000455158
Heightened Def Con from 0.000455158 to 0.000455158
Heightened Def Con from 0.000455158 to 0.000455158
Heightened Def Con from 0.000455158 to 0.000455158
Heightened Def Con from 0.000455159 to 0.000455159
Heightened Def Con from 0.000455159 to 0.000455159
Heightened Def Con from 0.000455159 to 0.000455159
Heightened Def Con from 0.000455159 to 0.000455159
Heightened Def Con from 0.000455159 to 0.000455159
Heightened Def Con from 0.00045516 to 0.000455166
Heightened Def Con from 0.000455339 to 0.000455342
Heightened Def Con from 0.000455406 to 0.000455409
Heightened Def Con from 0.000455668 to 0.00045567
Heightened Def Con from 0.000455673 to 0.000455674
Heightened Def Con from 0.000455674 to 0.000455675
Heightened Def Con from 0.000455675 to 0.000455675
Heightened Def Con from 0.000455675 to 0.000455675
Heightened Def Con from 0.000455675 to 0.000455676
Heightened Def Con from 0.000455676 to 0.000455676
Heightened Def Con from 0.000455676 to 0.000455676
Heightened Def Con from 0.000455676 to 0.000455676
Heightened Def Con from 0.000455676 to 0.000455676
Heightened Def Con from 0.000455676 to 0.000455676
Heightened Def Con from 0.000455676 to 0.000455676
Heightened Def Con from 0.000455676 to 0.00045568
Heightened Def Con from 0.000457641 to 0.000457649
Heightened Def Con from 0.000457776 to 0.000457779
Heightened Def Con from 0.000457797 to 0.000457797
Heightened Def Con from 0.000457797 to 0.000457798
Heightened Def Con from 0.000457798 to 0.000457798
Heightened Def Con from 0.000457798 to 0.000457798
Heightened Def Con from 0.000457798 to 0.000457799
Heightened Def Con from 0.000457799 to 0.000457799
Heightened Def Con from 0.000457799 to 0.00045781
Heightened Def Con from 0.000457977 to 0.00045798
Heightened Def Con from 0.000458111 to 0.000458114
Heightened Def Con from 0.000458178 to 0.000458181
Heightened Def Con from 0.00045831 to 0.000458311
Heightened Def Con from 0.000458311 to 0.000458311
Heightened Def Con from 0.000458311 to 0.000458311
Heightened Def Con from 0.000458311 to 0.000458311
Heightened Def Con from 0.000458311 to 0.000458311
Heightened Def Con from 0.000458311 to 0.000458312
Heightened Def Con from 0.000458312 to 0.000458316
Heightened Def Con from 0.000460001 to 0.000460009
Heightened Def Con from 0.000460136 to 0.000460139
Heightened Def Con from 0.000460157 to 0.000460157
Heightened Def Con from 0.000460157 to 0.000460157
Heightened Def Con from 0.000460157 to 0.000460157
Heightened Def Con from 0.000460157 to 0.000460157
Heightened Def Con from 0.000460157 to 0.000460157
Heightened Def Con from 0.000460158 to 0.000460158
Heightened Def Con from 0.000460158 to 0.000460158
Heightened Def Con from 0.000460158 to 0.000460158
Heightened Def Con from 0.000460158 to 0.000460165
Heightened Def Con from 0.000460603 to 0.000460606
Heightened Def Con from 0.000460655 to 0.000460657
Heightened Def Con from 0.000460669 to 0.00046067
Heightened Def Con from 0.00046067 to 0.000460671
Heightened Def Con from 0.000460671 to 0.000460671
Heightened Def Con from 0.000460671 to 0.000460672
Heightened Def Con from 0.000462641 to 0.000462649
Heightened Def Con from 0.000462777 to 0.00046278
Heightened Def Con from 0.000462798 to 0.000462798
Heightened Def Con from 0.000462798 to 0.000462799
Heightened Def Con from 0.000462799 to 0.000462799
Heightened Def Con from 0.0004628 to 0.0004628
Heightened Def Con from 0.0004628 to 0.0004628
Heightened Def Con from 0.000462801 to 0.000462809
Heightened Def Con from 0.000463114 to 0.000463117
Heightened Def Con from 0.000463294 to 0.000463296
Heightened Def Con from 0.000463313 to 0.000463313
Heightened Def Con from 0.000463314 to 0.000463314
Heightened Def Con from 0.000463314 to 0.000463314
Heightened Def Con from 0.000463314 to 0.000463314
Heightened Def Con from 0.000463314 to 0.000463314
Heightened Def Con from 0.000463314 to 0.000463314
Heightened Def Con from 0.000463314 to 0.000463314
Heightened Def Con from 0.000463314 to 0.000463314
Heightened Def Con from 0.000463314 to 0.000463314
Heightened Def Con from 0.000463314 to 0.000463314
Heightened Def Con from 0.000463314 to 0.000463314
Heightened Def Con from 0.000463314 to 0.000463318
Heightened Def Con from 0.000465 to 0.000465008
Heightened Def Con from 0.000465136 to 0.000465139
Heightened Def Con from 0.000465157 to 0.000465157
Heightened Def Con from 0.000465157 to 0.000465157
Heightened Def Con from 0.000465157 to 0.000465157
Heightened Def Con from 0.000465157 to 0.000465157
Heightened Def Con from 0.000465157 to 0.000465157
Heightened Def Con from 0.000465158 to 0.000465158
Heightened Def Con from 0.000465158 to 0.000465158
Heightened Def Con from 0.000465158 to 0.000465158
Heightened Def Con from 0.000465158 to 0.000465165
Heightened Def Con from 0.00046527 to 0.000465273
Heightened Def Con from 0.000465538 to 0.000465541
Heightened Def Con from 0.000465605 to 0.000465608
Heightened Def Con from 0.000465656 to 0.000465658
Heightened Def Con from 0.000465666 to 0.000465668
Heightened Def Con from 0.000465671 to 0.000465671
Heightened Def Con from 0.000465672 to 0.000465673
Heightened Def Con from 0.000465673 to 0.000465673
Heightened Def Con from 0.000465673 to 0.000465677
Heightened Def Con from 0.000467642 to 0.000467648
Heightened Def Con from 0.000467787 to 0.000467787
Heightened Def Con from 0.000467787 to 0.000467787
Heightened Def Con from 0.000467788 to 0.000467788
Heightened Def Con from 0.000467788 to 0.000467789
Heightened Def Con from 0.000467789 to 0.000467789
Heightened Def Con from 0.00046779 to 0.0004678
Heightened Def Con from 0.000468296 to 0.000468298
Heightened Def Con from 0.000468306 to 0.000468308
Heightened Def Con from 0.000468309 to 0.000468309
Heightened Def Con from 0.000468309 to 0.000468309
Heightened Def Con from 0.000468309 to 0.000468309
Heightened Def Con from 0.000468309 to 0.000468309
Heightened Def Con from 0.000468309 to 0.000468309
Heightened Def Con from 0.000468309 to 0.000468309
Heightened Def Con from 0.000468309 to 0.000468309
Heightened Def Con from 0.000468309 to 0.000468309
Heightened Def Con from 0.000468309 to 0.000468309
Heightened Def Con from 0.000468309 to 0.000468309
Heightened Def Con from 0.000468309 to 0.000468309
Heightened Def Con from 0.000468309 to 0.000468309
Heightened Def Con from 0.000468309 to 0.000468313
Heightened Def Con from 0.00047 to 0.000470008
Heightened Def Con from 0.000470136 to 0.000470139
Heightened Def Con from 0.000470157 to 0.000470157
Heightened Def Con from 0.000470157 to 0.000470157
Heightened Def Con from 0.000470157 to 0.000470158
Heightened Def Con from 0.000470158 to 0.000470164
Heightened Def Con from 0.000470405 to 0.000470408
Heightened Def Con from 0.000470539 to 0.000470542
Heightened Def Con from 0.000470652 to 0.000470654
Heightened Def Con from 0.000470671 to 0.000470672
Heightened Def Con from 0.000470672 to 0.000470673
Heightened Def Con from 0.000470673 to 0.000470673
Heightened Def Con from 0.000470673 to 0.000470674
Heightened Def Con from 0.000470674 to 0.000470674
Heightened Def Con from 0.000470674 to 0.000470674
Heightened Def Con from 0.000470674 to 0.000470674
Heightened Def Con from 0.000470674 to 0.000470674
Heightened Def Con from 0.000470674 to 0.000470674
Heightened Def Con from 0.000470674 to 0.000470674
Heightened Def Con from 0.000470674 to 0.000470678
Heightened Def Con from 0.000472641 to 0.000472649
Heightened Def Con from 0.000472777 to 0.00047278
Heightened Def Con from 0.000472798 to 0.000472799
Heightened Def Con from 0.000472799 to 0.000472799
Heightened Def Con from 0.000472799 to 0.000472799
Heightened Def Con from 0.000472799 to 0.0004728
Heightened Def Con from 0.0004728 to 0.00047281
Heightened Def Con from 0.000473315 to 0.000473316
Heightened Def Con from 0.000473316 to 0.000473316
Heightened Def Con from 0.000473316 to 0.000473316
Heightened Def Con from 0.000473316 to 0.000473316
Heightened Def Con from 0.000473316 to 0.000473316
Heightened Def Con from 0.000473316 to 0.000473316
Heightened Def Con from 0.000473316 to 0.000473316
Heightened Def Con from 0.000473316 to 0.000473316
Heightened Def Con from 0.000473316 to 0.000473316
Heightened Def Con from 0.000473316 to 0.000473316
Heightened Def Con from 0.000473316 to 0.000473316
Heightened Def Con from 0.000473317 to 0.000473317
Heightened Def Con from 0.000473317 to 0.000473317
Heightened Def Con from 0.000475001 to 0.000475009
Heightened Def Con from 0.000475153 to 0.000475156
Heightened Def Con from 0.000475156 to 0.000475157
Heightened Def Con from 0.000475157 to 0.000475158
Heightened Def Con from 0.000475158 to 0.000475165
Heightened Def Con from 0.000475406 to 0.000475409
Heightened Def Con from 0.000475539 to 0.000475542
Heightened Def Con from 0.000475658 to 0.00047566
Heightened Def Con from 0.000475672 to 0.000475672
Heightened Def Con from 0.000475672 to 0.000475672
Heightened Def Con from 0.000475672 to 0.000475673
Heightened Def Con from 0.000475673 to 0.000475673
Heightened Def Con from 0.000475674 to 0.000475674
Heightened Def Con from 0.000475674 to 0.000475677
Heightened Def Con from 0.000477641 to 0.000477649
Heightened Def Con from 0.00047771 to 0.000477713
Heightened Def Con from 0.000477791 to 0.000477794
Heightened Def Con from 0.000477796 to 0.000477799
Heightened Def Con from 0.000477799 to 0.0004778
Heightened Def Con from 0.0004778 to 0.0004778
Heightened Def Con from 0.000477801 to 0.000477801
Heightened Def Con from 0.000477801 to 0.000477812
Heightened Def Con from 0.000478248 to 0.000478251
Heightened Def Con from 0.000478311 to 0.000478313
Heightened Def Con from 0.000478314 to 0.000478314
Heightened Def Con from 0.000478314 to 0.000478314
Heightened Def Con from 0.000478314 to 0.000478314
Heightened Def Con from 0.000478314 to 0.000478318
Heightened Def Con from 0.000480001 to 0.000480009
Heightened Def Con from 0.000480137 to 0.00048014
Heightened Def Con from 0.000480158 to 0.000480158
Heightened Def Con from 0.000480158 to 0.000480158
Heightened Def Con from 0.000480158 to 0.000480158
Heightened Def Con from 0.000480158 to 0.000480158
Heightened Def Con from 0.000480158 to 0.000480158
Heightened Def Con from 0.000480159 to 0.000480166
Heightened Def Con from 0.00048027 to 0.000480273
Heightened Def Con from 0.000480604 to 0.000480607
Heightened Def Con from 0.000480656 to 0.000480658
Heightened Def Con from 0.000480671 to 0.000480671
Heightened Def Con from 0.000480671 to 0.000480672
Heightened Def Con from 0.000480672 to 0.000480672
Heightened Def Con from 0.000480672 to 0.000480673
Heightened Def Con from 0.000482641 to 0.000482649
Heightened Def Con from 0.000482777 to 0.00048278
Heightened Def Con from 0.000482798 to 0.000482798
Heightened Def Con from 0.000482798 to 0.000482798
Heightened Def Con from 0.000482799 to 0.0004828
Heightened Def Con from 0.0004828 to 0.0004828
Heightened Def Con from 0.0004828 to 0.0004828
Heightened Def Con from 0.000482801 to 0.000482811
Heightened Def Con from 0.000482844 to 0.000482847
Heightened Def Con from 0.000482979 to 0.000482982
Heightened Def Con from 0.000483295 to 0.000483297
Heightened Def Con from 0.000483313 to 0.000483313
Heightened Def Con from 0.000483313 to 0.000483313
Heightened Def Con from 0.000483313 to 0.000483313
Heightened Def Con from 0.000483313 to 0.000483313
Heightened Def Con from 0.000483313 to 0.000483313
Heightened Def Con from 0.000483313 to 0.000483313
Heightened Def Con from 0.000483313 to 0.000483313
Heightened Def Con from 0.000483313 to 0.000483313
Heightened Def Con from 0.000483313 to 0.000483313
Heightened Def Con from 0.000483314 to 0.000483314
Heightened Def Con from 0.000483314 to 0.000483314
Heightened Def Con from 0.000483314 to 0.000483318
Heightened Def Con from 0.000485001 to 0.000485009
Heightened Def Con from 0.000485136 to 0.000485139
Heightened Def Con from 0.000485157 to 0.000485157
Heightened Def Con from 0.000485158 to 0.000485158
Heightened Def Con from 0.000485158 to 0.000485158
Heightened Def Con from 0.000485158 to 0.000485158
Heightened Def Con from 0.000485158 to 0.000485158
Heightened Def Con from 0.000485158 to 0.000485158
Heightened Def Con from 0.000485158 to 0.000485158
Heightened Def Con from 0.000485158 to 0.000485158
Heightened Def Con from 0.000485158 to 0.000485158
Heightened Def Con from 0.000485158 to 0.000485158
Heightened Def Con from 0.000485158 to 0.000485158
Heightened Def Con from 0.000485158 to 0.000485165
Heightened Def Con from 0.000485652 to 0.000485654
Heightened Def Con from 0.000485671 to 0.000485671
Heightened Def Con from 0.000485671 to 0.000485672
Heightened Def Con from 0.000485672 to 0.000485672
Heightened Def Con from 0.000485672 to 0.000485672
Heightened Def Con from 0.000485672 to 0.000485672
Heightened Def Con from 0.000485672 to 0.000485673
Heightened Def Con from 0.000485673 to 0.000485673
Heightened Def Con from 0.000485673 to 0.000485677
Heightened Def Con from 0.000487641 to 0.000487649
Heightened Def Con from 0.000487796 to 0.000487797
Heightened Def Con from 0.000487798 to 0.000487798
Heightened Def Con from 0.000487799 to 0.000487799
Heightened Def Con from 0.000487799 to 0.000487799
Heightened Def Con from 0.000487799 to 0.000487799
Heightened Def Con from 0.000487799 to 0.000487799
Heightened Def Con from 0.0004878 to 0.0004878
Heightened Def Con from 0.0004878 to 0.000487809
Heightened Def Con from 0.000487913 to 0.000487916
Heightened Def Con from 0.000488302 to 0.000488304
Heightened Def Con from 0.000488314 to 0.000488314
Heightened Def Con from 0.000488314 to 0.000488314
Heightened Def Con from 0.000488314 to 0.000488314
Heightened Def Con from 0.000488314 to 0.000488314
Heightened Def Con from 0.000488314 to 0.000488314
Heightened Def Con from 0.000488314 to 0.000488314
Heightened Def Con from 0.000488314 to 0.000488314
Heightened Def Con from 0.000488314 to 0.000488314
Heightened Def Con from 0.000488314 to 0.000488314
Heightened Def Con from 0.000488315 to 0.000488315
Heightened Def Con from 0.000488315 to 0.000488315
Heightened Def Con from 0.000488315 to 0.000488316
Heightened Def Con from 0.000490001 to 0.000490009
Heightened Def Con from 0.000490157 to 0.00049016
Heightened Def Con from 0.000490162 to 0.000490163
Heightened Def Con from 0.000490163 to 0.000490163
Heightened Def Con from 0.000490163 to 0.000490163
Heightened Def Con from 0.000490163 to 0.000490163
Heightened Def Con from 0.000490164 to 0.000490164
Heightened Def Con from 0.000490164 to 0.00049017
Heightened Def Con from 0.000490339 to 0.000490342
Heightened Def Con from 0.000490473 to 0.000490476
Heightened Def Con from 0.000490653 to 0.000490655
Heightened Def Con from 0.000490672 to 0.000490673
Heightened Def Con from 0.000490673 to 0.000490674
Heightened Def Con from 0.000490674 to 0.000490674
Heightened Def Con from 0.000490675 to 0.000490675
Heightened Def Con from 0.000492641 to 0.000492649
Heightened Def Con from 0.000492776 to 0.000492779
Heightened Def Con from 0.000492796 to 0.000492796
Heightened Def Con from 0.000492796 to 0.000492796
Heightened Def Con from 0.000492796 to 0.000492797
Heightened Def Con from 0.000492797 to 0.000492798
Heightened Def Con from 0.000492798 to 0.000492798
Heightened Def Con from 0.000492798 to 0.000492798
Heightened Def Con from 0.0004928 to 0.000492807
Heightened Def Con from 0.000493042 to 0.000493045
Heightened Def Con from 0.000493175 to 0.000493178
Heightened Def Con from 0.000493294 to 0.000493296
Heightened Def Con from 0.000493309 to 0.000493309
Heightened Def Con from 0.000493309 to 0.000493309
Heightened Def Con from 0.000493309 to 0.000493309
Heightened Def Con from 0.000493309 to 0.000493309
Heightened Def Con from 0.000493309 to 0.000493309
Heightened Def Con from 0.000493309 to 0.000493313
Heightened Def Con from 0.000495001 to 0.000495009
Heightened Def Con from 0.00049507 to 0.000495073
Heightened Def Con from 0.000495157 to 0.000495157
Heightened Def Con from 0.000495157 to 0.000495157
Heightened Def Con from 0.000495157 to 0.000495157
Heightened Def Con from 0.000495157 to 0.000495157
Heightened Def Con from 0.000495157 to 0.000495157
Heightened Def Con from 0.000495157 to 0.000495157
Heightened Def Con from 0.000495157 to 0.000495157
Heightened Def Con from 0.000495157 to 0.000495157
Heightened Def Con from 0.000495157 to 0.000495157
Heightened Def Con from 0.000495157 to 0.000495157
Heightened Def Con from 0.000495157 to 0.000495157
Heightened Def Con from 0.000495158 to 0.000495166
Heightened Def Con from 0.00049527 to 0.000495273
Heightened Def Con from 0.000495404 to 0.000495407
Heightened Def Con from 0.000495605 to 0.000495608
Heightened Def Con from 0.000495657 to 0.000495659
Heightened Def Con from 0.000495666 to 0.000495668
Heightened Def Con from 0.000495671 to 0.000495672
Heightened Def Con from 0.000495673 to 0.000495673
Heightened Def Con from 0.000495673 to 0.000495673
Heightened Def Con from 0.000497641 to 0.000497649
Heightened Def Con from 0.000497795 to 0.000497795
Heightened Def Con from 0.000497796 to 0.000497796
Heightened Def Con from 0.000497796 to 0.000497796
Heightened Def Con from 0.000497796 to 0.000497796
Heightened Def Con from 0.000497796 to 0.000497796
Heightened Def Con from 0.000497796 to 0.000497797
Heightened Def Con from 0.000497797 to 0.000497797
Heightened Def Con from 0.000497799 to 0.000497807
Heightened Def Con from 0.000498297 to 0.000498299
Heightened Def Con from 0.000498307 to 0.000498309
Heightened Def Con from 0.000498311 to 0.000498311
Heightened Def Con from 0.000498311 to 0.000498311
Heightened Def Con from 0.000498312 to 0.000498312
Heightened Def Con from 0.000498312 to 0.000498312
Heightened Def Con from 0.000498312 to 0.000498312
Heightened Def Con from 0.000498312 to 0.000498312
Heightened Def Con from 0.000498312 to 0.000498312
Heightened Def Con from 0.000498312 to 0.000498317


Measurement "vo" FAIL'ed

Measurement "il" FAIL'ed


Date: Wed Nov 06 15:25:40 2024
Total elapsed time: 92.786 seconds.

tnom = 27
temp = 27
method = modified trap
totiter = 1811547
traniter = 1793385
tranpoints = 352699
accept = 234201
rejected = 122335
matrix size = 279
fillins = 126
solver = Normal
Thread vector: 23.2/18.4[4] 11.8/7.8[4] 33.7/16.7[4] 0.7/2.8[1]  2592/500
Matrix Compiler1: 14.43 KB object code size  7.0/3.8/[1.4]
Matrix Compiler2: 19.82 KB object code size  5.2/7.3/[1.0]

