Circuit: * F:\Facultad\Taller de Diseño de Circuitos Electrónicos - TA138\Proyecto Final\dce-g5-proyecto_integrador\Checkpoint 4\Simus\Buck-lazo-abierto.asc

Instance "m:u1:_gd_template:_lo_stage:_lo_nmos": Length shorter than recommended for a level 1 MOSFET.
Instance "m:u1:_gd_template:_lo_stage:_lo_pmos": Length shorter than recommended for a level 1 MOSFET.
Instance "m:u1:_gd_template:_ho_stage:_ho_nmos": Length shorter than recommended for a level 1 MOSFET.
Instance "m:u1:_gd_template:_ho_stage:_ho_pmos": Length shorter than recommended for a level 1 MOSFET.
Direct Newton iteration failed to find .op point.  (Use ".option noopiter" to skip.)
Starting Gmin stepping
Gmin = 10
Gmin = 1.07374
vernier = 0.5
vernier = 0.25
vernier = 0.125
vernier = 0.0625
Gmin = 0.995033
vernier = 0.03125
vernier = 0.015625
vernier = 0.0078125
vernier = 0.00390625
vernier = 0.00195313
vernier = 0.000976563
Gmin = 1.00275
vernier = 0.000488281
Gmin = 0
Gmin stepping failed

Starting source stepping with srcstepmethod=0
Source Step = 3.0303%
Source Step = 33.3333%
Source Step = 50.1894%
vernier = 0.015625
Source Step = 50.0237%
Starting source stepping with srcstepmethod=1
Source Step = 3.0303%
Source Step = 33.3333%
Source Step = 50.1894%
vernier = 0.015625
Source stepping failed

Pseudo Transient failed in finding the operating point at 5.625 µs.
Trouble finding operating point....skipping operating point for Transient analysis.
Changing Tseed to 1e-009
Changing Tseed to 1e-011
Changing Tseed to 1e-008
Changing Tseed to 1e-012
Changing Tseed to 1e-007
Changing Tseed to 1e-013
to 1.125e-013
Heightened Def Con from 6.73346e-007 to 6.73597e-007


Measurement "vo" FAIL'ed

Measurement "il" FAIL'ed


Date: Thu Nov 07 13:40:53 2024
Total elapsed time: 21.645 seconds.

tnom = 27
temp = 27
method = modified trap
totiter = 1108822
traniter = 1090705
tranpoints = 225741
accept = 167296
rejected = 58809
matrix size = 279
fillins = 175
solver = Normal
Thread vector: 40.3/16.5[11] 5.0/3.6[5] 13.6/5.3[11] 0.8/1.5[1]  2592/500
Matrix Compiler1: 16.48 KB object code size  13.9/3.9/[2.1]
Matrix Compiler2: 20.46 KB object code size  3.3/6.4/[1.5]

