Circuit: * C:\Users\---\Desktop\DCE\dce-g5-proyecto_integrador\Checkpoint 4\Simus\Buck-lazo-abierto.asc

Direct Newton iteration for .op point succeeded.

vo: AVG(v(vo))=3.68894 FROM 0.0002 TO 0.002
il: AVG(i(il))=0.738631 FROM 0.0002 TO 0.002


Date: Sun Nov 03 18:16:59 2024
Total elapsed time: 0.627 seconds.

tnom = 27
temp = 27
method = modified trap
totiter = 146395
traniter = 146390
tranpoints = 42641
accept = 33100
rejected = 9541
matrix size = 11
fillins = 0
solver = Normal
Matrix Compiler1: 494 bytes object code size  0.1/0.1/[0.1]
Matrix Compiler2: off  [0.1]/0.1/0.1

