Circuit: * C:\Users\---\Desktop\DCE\dce-g5-proyecto_integrador\Checkpoint 4\Simus\Buck-lazo-abierto.asc

Instance "m:u1:_gd_template:_lo_stage:_lo_nmos": Length shorter than recommended for a level 1 MOSFET.
Instance "m:u1:_gd_template:_lo_stage:_lo_pmos": Length shorter than recommended for a level 1 MOSFET.
Instance "m:u1:_gd_template:_ho_stage:_ho_nmos": Length shorter than recommended for a level 1 MOSFET.
Instance "m:u1:_gd_template:_ho_stage:_ho_pmos": Length shorter than recommended for a level 1 MOSFET.
Per .tran options, skipping operating point for transient analysis.
Changing Tseed to 9.76563e-011
Changing Tseed to 9.76562e-013
Changing Tseed to 9.76562e-010
Changing Tseed to 9.76563e-014
Heightened Def Con from 2.61415e-010 to 1.6125e-009
Heightened Def Con from 1.61613e-009 to 6.61613e-009
Heightened Def Con from 1.66836e-008 to 1.96836e-008
Heightened Def Con from 4.78005e-008 to 5.08005e-008
Heightened Def Con from 6.42291e-008 to 6.72291e-008
Heightened Def Con from 6.8987e-008 to 7.1987e-008
Heightened Def Con from 9.65192e-008 to 9.95192e-008
Heightened Def Con from 1.10775e-007 to 1.13775e-007
Heightened Def Con from 1.36219e-007 to 1.39219e-007
Heightened Def Con from 1.41238e-007 to 1.44238e-007
Heightened Def Con from 2.04697e-007 to 2.07697e-007
Heightened Def Con from 3.37403e-007 to 3.40403e-007
Heightened Def Con from 4.04285e-007 to 4.07285e-007
Heightened Def Con from 4.72197e-007 to 4.75197e-007
Heightened Def Con from 6.04347e-007 to 6.07347e-007
Heightened Def Con from 6.71239e-007 to 6.71241e-007
Heightened Def Con from 6.71241e-007 to 6.71247e-007
Heightened Def Con from 6.71287e-007 to 6.71289e-007
Heightened Def Con from 6.71289e-007 to 6.71291e-007
Heightened Def Con from 6.71309e-007 to 6.71309e-007
Heightened Def Con from 6.71309e-007 to 6.71716e-007
Heightened Def Con from 6.71732e-007 to 6.74732e-007
Heightened Def Con from 2.64684e-006 to 2.65484e-006
Heightened Def Con from 2.71759e-006 to 2.72059e-006
Heightened Def Con from 2.78478e-006 to 2.78778e-006
Heightened Def Con from 2.80591e-006 to 2.80592e-006
Heightened Def Con from 2.80609e-006 to 2.80609e-006
Heightened Def Con from 2.80609e-006 to 2.8061e-006
Heightened Def Con from 2.80626e-006 to 2.80627e-006
Heightened Def Con from 2.80627e-006 to 2.80627e-006
Heightened Def Con from 2.80627e-006 to 2.80628e-006
Heightened Def Con from 2.80638e-006 to 2.80638e-006
Heightened Def Con from 2.80638e-006 to 2.80638e-006
Heightened Def Con from 2.80638e-006 to 2.80638e-006
Heightened Def Con from 2.80638e-006 to 2.80639e-006
Heightened Def Con from 2.80639e-006 to 2.80639e-006
Heightened Def Con from 2.80646e-006 to 2.80646e-006
Heightened Def Con from 2.80646e-006 to 2.80647e-006
Heightened Def Con from 2.80647e-006 to 2.8066e-006
Heightened Def Con from 2.80693e-006 to 2.81293e-006
Heightened Def Con from 2.85149e-006 to 2.85449e-006
Heightened Def Con from 3.05152e-006 to 3.05452e-006
Heightened Def Con from 3.11921e-006 to 3.12221e-006
Heightened Def Con from 3.18365e-006 to 3.18665e-006
Heightened Def Con from 3.25053e-006 to 3.25353e-006
Heightened Def Con from 3.31294e-006 to 3.31494e-006
Heightened Def Con from 3.31693e-006 to 3.31693e-006
Heightened Def Con from 3.31693e-006 to 3.31707e-006
Heightened Def Con from 3.31713e-006 to 3.31715e-006
Heightened Def Con from 3.31718e-006 to 3.31743e-006
Heightened Def Con from 3.31743e-006 to 3.31745e-006
Heightened Def Con from 3.31745e-006 to 3.31745e-006
Heightened Def Con from 3.31745e-006 to 3.31745e-006
Heightened Def Con from 3.31745e-006 to 3.3177e-006
Heightened Def Con from 3.31773e-006 to 3.31774e-006
Heightened Def Con from 3.31774e-006 to 3.31774e-006
Heightened Def Con from 3.31774e-006 to 3.31777e-006
Heightened Def Con from 3.3178e-006 to 3.31782e-006
Heightened Def Con from 3.31782e-006 to 3.31787e-006
Heightened Def Con from 3.31796e-006 to 3.31798e-006
Heightened Def Con from 3.31798e-006 to 3.31799e-006
Heightened Def Con from 3.318e-006 to 3.318e-006
Heightened Def Con from 3.318e-006 to 3.31802e-006
Heightened Def Con from 3.31807e-006 to 3.3181e-006
Heightened Def Con from 3.3182e-006 to 3.3182e-006
Heightened Def Con from 3.31821e-006 to 3.31824e-006
Heightened Def Con from 3.31825e-006 to 3.31825e-006
Heightened Def Con from 3.31825e-006 to 3.31827e-006
Heightened Def Con from 3.31831e-006 to 3.31832e-006
Heightened Def Con from 3.31833e-006 to 3.31837e-006
Heightened Def Con from 3.31837e-006 to 3.31837e-006
Heightened Def Con from 3.31839e-006 to 3.31842e-006
Heightened Def Con from 3.31844e-006 to 3.31844e-006
Heightened Def Con from 3.31845e-006 to 3.31846e-006
Heightened Def Con from 3.31846e-006 to 3.3185e-006
Heightened Def Con from 3.31861e-006 to 3.31861e-006
Heightened Def Con from 3.31862e-006 to 3.31865e-006
Heightened Def Con from 3.31865e-006 to 3.31865e-006
Heightened Def Con from 3.31865e-006 to 3.31866e-006
Heightened Def Con from 3.31866e-006 to 3.31866e-006
Heightened Def Con from 3.31878e-006 to 3.31881e-006
Heightened Def Con from 3.31883e-006 to 3.31883e-006
Heightened Def Con from 3.31885e-006 to 3.31886e-006
Heightened Def Con from 3.31892e-006 to 3.31897e-006
Heightened Def Con from 3.31898e-006 to 3.31898e-006
Heightened Def Con from 3.31904e-006 to 3.31904e-006
Heightened Def Con from 3.31919e-006 to 3.3192e-006
Heightened Def Con from 3.31921e-006 to 3.31921e-006
Heightened Def Con from 3.31922e-006 to 3.31924e-006
Heightened Def Con from 3.31924e-006 to 3.31929e-006
Heightened Def Con from 3.3193e-006 to 3.31931e-006
Heightened Def Con from 3.31932e-006 to 3.31932e-006
Heightened Def Con from 3.31932e-006 to 3.31932e-006
Heightened Def Con from 3.31941e-006 to 3.31941e-006
Heightened Def Con from 3.31945e-006 to 3.31961e-006
Heightened Def Con from 3.31963e-006 to 3.32363e-006
Heightened Def Con from 5.00004e-006 to 5.00804e-006
Heightened Def Con from 5.13976e-006 to 5.14276e-006
Heightened Def Con from 5.14837e-006 to 5.15137e-006
Heightened Def Con from 5.15533e-006 to 5.15534e-006
Heightened Def Con from 5.15544e-006 to 5.15544e-006
Heightened Def Con from 5.15567e-006 to 5.15572e-006
Heightened Def Con from 5.15584e-006 to 5.15585e-006
Heightened Def Con from 5.15611e-006 to 5.15614e-006
Heightened Def Con from 5.15643e-006 to 5.15645e-006
Heightened Def Con from 5.15649e-006 to 5.1565e-006
Heightened Def Con from 5.15674e-006 to 5.15678e-006
Heightened Def Con from 5.15738e-006 to 5.1574e-006
Heightened Def Con from 5.1574e-006 to 5.1684e-006
Heightened Def Con from 5.20339e-006 to 5.20639e-006
Heightened Def Con from 5.26998e-006 to 5.27298e-006
Heightened Def Con from 5.40452e-006 to 5.40752e-006
Heightened Def Con from 5.47375e-006 to 5.47675e-006
Heightened Def Con from 5.60482e-006 to 5.60882e-006
Heightened Def Con from 5.65743e-006 to 5.65943e-006
Heightened Def Con from 5.66702e-006 to 5.66902e-006
Heightened Def Con from 5.67239e-006 to 5.6724e-006
Heightened Def Con from 5.67243e-006 to 5.67243e-006
Heightened Def Con from 5.67243e-006 to 5.67244e-006
Heightened Def Con from 5.67247e-006 to 5.67247e-006
Heightened Def Con from 5.67256e-006 to 5.67256e-006
Heightened Def Con from 5.67266e-006 to 5.67266e-006
Heightened Def Con from 5.67275e-006 to 5.67276e-006
Heightened Def Con from 5.67282e-006 to 5.67283e-006
Heightened Def Con from 5.67284e-006 to 5.67361e-006
Heightened Def Con from 5.67361e-006 to 5.67761e-006
Heightened Def Con from 5.68447e-006 to 5.69047e-006
Heightened Def Con from 5.7396e-006 to 5.7426e-006
Heightened Def Con from 7.64485e-006 to 7.65485e-006
Heightened Def Con from 7.71758e-006 to 7.72058e-006
Heightened Def Con from 7.78258e-006 to 7.78558e-006
Heightened Def Con from 7.80176e-006 to 7.80676e-006
Heightened Def Con from 7.80876e-006 to 7.80876e-006
Heightened Def Con from 7.80878e-006 to 7.80878e-006
Heightened Def Con from 7.80878e-006 to 7.80878e-006
Heightened Def Con from 7.80878e-006 to 7.80878e-006
Heightened Def Con from 7.80878e-006 to 7.80878e-006
Heightened Def Con from 7.80878e-006 to 7.80878e-006
Heightened Def Con from 7.80878e-006 to 7.80879e-006
Heightened Def Con from 7.80879e-006 to 7.80879e-006
Heightened Def Con from 7.80885e-006 to 7.80885e-006
Heightened Def Con from 7.80885e-006 to 7.80885e-006
Heightened Def Con from 7.80887e-006 to 7.80887e-006
Heightened Def Con from 7.80887e-006 to 7.80887e-006
Heightened Def Con from 7.80887e-006 to 7.80901e-006
Heightened Def Con from 7.80901e-006 to 7.81701e-006
Heightened Def Con from 7.84879e-006 to 7.85279e-006
Heightened Def Con from 8.04889e-006 to 8.05289e-006
Heightened Def Con from 8.18417e-006 to 8.18717e-006
Heightened Def Con from 8.30099e-006 to 8.30299e-006
Heightened Def Con from 8.31059e-006 to 8.31259e-006
Heightened Def Con from 8.31584e-006 to 8.31697e-006
Heightened Def Con from 8.317e-006 to 8.31701e-006
Heightened Def Con from 8.31707e-006 to 8.31711e-006
Heightened Def Con from 8.31747e-006 to 8.31747e-006
Heightened Def Con from 8.31747e-006 to 8.3176e-006
Heightened Def Con from 8.31763e-006 to 8.31764e-006
Heightened Def Con from 8.3177e-006 to 8.31784e-006
Heightened Def Con from 8.31785e-006 to 8.318e-006
Heightened Def Con from 8.31806e-006 to 8.31807e-006
Heightened Def Con from 8.31808e-006 to 8.31809e-006
Heightened Def Con from 8.3181e-006 to 8.31811e-006
Heightened Def Con from 8.31816e-006 to 8.31818e-006
Heightened Def Con from 8.3182e-006 to 8.31824e-006
Heightened Def Con from 8.31829e-006 to 8.3183e-006
Heightened Def Con from 8.3183e-006 to 8.31831e-006
Heightened Def Con from 8.31832e-006 to 8.31832e-006
Heightened Def Con from 8.3184e-006 to 8.3184e-006
Heightened Def Con from 8.31841e-006 to 8.31844e-006
Heightened Def Con from 8.3185e-006 to 8.31855e-006
Heightened Def Con from 8.31863e-006 to 8.31868e-006
Heightened Def Con from 8.31872e-006 to 8.31872e-006
Heightened Def Con from 8.31892e-006 to 8.31892e-006
Heightened Def Con from 8.31892e-006 to 8.31892e-006
Heightened Def Con from 8.31894e-006 to 8.31894e-006
Heightened Def Con from 8.31902e-006 to 8.31904e-006
Heightened Def Con from 8.31904e-006 to 8.31904e-006
Heightened Def Con from 8.31905e-006 to 8.31905e-006
Heightened Def Con from 8.31905e-006 to 8.31905e-006
Heightened Def Con from 8.31913e-006 to 8.31913e-006
Heightened Def Con from 8.31913e-006 to 8.31915e-006
Heightened Def Con from 8.31933e-006 to 8.31935e-006
Heightened Def Con from 8.31935e-006 to 8.31936e-006
Heightened Def Con from 8.31936e-006 to 8.31939e-006
Heightened Def Con from 8.3194e-006 to 8.31942e-006
Heightened Def Con from 8.3195e-006 to 8.31962e-006
Heightened Def Con from 8.31963e-006 to 8.32463e-006
Heightened Def Con from 8.35037e-006 to 8.35937e-006
Heightened Def Con from 8.35938e-006 to 8.36238e-006
Heightened Def Con from 9.99974e-006 to 1.00077e-005
Heightened Def Con from 1.01354e-005 to 1.01384e-005
Heightened Def Con from 1.0156e-005 to 1.0156e-005
Heightened Def Con from 1.01561e-005 to 1.01563e-005
Heightened Def Con from 1.01566e-005 to 1.01569e-005
Heightened Def Con from 1.01571e-005 to 1.01571e-005
Heightened Def Con from 1.01572e-005 to 1.01572e-005
Heightened Def Con from 1.01573e-005 to 1.01573e-005
Heightened Def Con from 1.01573e-005 to 1.01573e-005
Heightened Def Con from 1.01574e-005 to 1.01575e-005
Heightened Def Con from 1.01575e-005 to 1.01576e-005
Heightened Def Con from 1.01579e-005 to 1.01579e-005
Heightened Def Con from 1.0158e-005 to 1.0158e-005
Heightened Def Con from 1.0158e-005 to 1.0158e-005
Heightened Def Con from 1.01585e-005 to 1.01585e-005
Heightened Def Con from 1.01586e-005 to 1.01586e-005
Heightened Def Con from 1.01586e-005 to 1.01696e-005
Heightened Def Con from 1.02013e-005 to 1.02053e-005
Heightened Def Con from 1.03371e-005 to 1.03401e-005
Heightened Def Con from 1.06098e-005 to 1.06128e-005
Heightened Def Con from 1.06627e-005 to 1.06647e-005
Heightened Def Con from 1.06647e-005 to 1.06667e-005
Heightened Def Con from 1.067e-005 to 1.0672e-005
Heightened Def Con from 1.06732e-005 to 1.06742e-005
Heightened Def Con from 1.06742e-005 to 1.06742e-005
Heightened Def Con from 1.06742e-005 to 1.06742e-005
Heightened Def Con from 1.06742e-005 to 1.06742e-005
Heightened Def Con from 1.06743e-005 to 1.06743e-005
Heightened Def Con from 1.06743e-005 to 1.06743e-005
Heightened Def Con from 1.06743e-005 to 1.06747e-005
Heightened Def Con from 1.06748e-005 to 1.06788e-005
Heightened Def Con from 1.06862e-005 to 1.06892e-005
Heightened Def Con from 1.06892e-005 to 1.06922e-005
Heightened Def Con from 1.07424e-005 to 1.07454e-005
Heightened Def Con from 1.25284e-005 to 1.25304e-005
Heightened Def Con from 1.2644e-005 to 1.2655e-005
Heightened Def Con from 1.27178e-005 to 1.27208e-005
Heightened Def Con from 1.27843e-005 to 1.27855e-005
Heightened Def Con from 1.2786e-005 to 1.2789e-005
Heightened Def Con from 1.28067e-005 to 1.28067e-005
Heightened Def Con from 1.28067e-005 to 1.28067e-005
Heightened Def Con from 1.28067e-005 to 1.28067e-005
Heightened Def Con from 1.28067e-005 to 1.28067e-005
Heightened Def Con from 1.28067e-005 to 1.28067e-005
Heightened Def Con from 1.28067e-005 to 1.28067e-005
Heightened Def Con from 1.28067e-005 to 1.28067e-005
Heightened Def Con from 1.28067e-005 to 1.28067e-005
Heightened Def Con from 1.28067e-005 to 1.28067e-005
Heightened Def Con from 1.28067e-005 to 1.28067e-005
Heightened Def Con from 1.28067e-005 to 1.28067e-005
Heightened Def Con from 1.28067e-005 to 1.28067e-005
Heightened Def Con from 1.28068e-005 to 1.28068e-005
Heightened Def Con from 1.28068e-005 to 1.28068e-005
Heightened Def Con from 1.28068e-005 to 1.28068e-005
Heightened Def Con from 1.28068e-005 to 1.28068e-005
Heightened Def Con from 1.28068e-005 to 1.28068e-005
Heightened Def Con from 1.28068e-005 to 1.28068e-005
Heightened Def Con from 1.28068e-005 to 1.28069e-005
Heightened Def Con from 1.28069e-005 to 1.28069e-005
Heightened Def Con from 1.28069e-005 to 1.28069e-005
Heightened Def Con from 1.28069e-005 to 1.28069e-005
Heightened Def Con from 1.28069e-005 to 1.28069e-005
Heightened Def Con from 1.28069e-005 to 1.28069e-005
Heightened Def Con from 1.28069e-005 to 1.28069e-005
Heightened Def Con from 1.28069e-005 to 1.28069e-005
Heightened Def Con from 1.28069e-005 to 1.28069e-005
Heightened Def Con from 1.28069e-005 to 1.28069e-005
Heightened Def Con from 1.28069e-005 to 1.28069e-005
Heightened Def Con from 1.28069e-005 to 1.28069e-005
Heightened Def Con from 1.28069e-005 to 1.28069e-005
Heightened Def Con from 1.28069e-005 to 1.28069e-005
Heightened Def Con from 1.28069e-005 to 1.28069e-005
Heightened Def Con from 1.28069e-005 to 1.28069e-005
Heightened Def Con from 1.28069e-005 to 1.28069e-005
Heightened Def Con from 1.2807e-005 to 1.2807e-005
Heightened Def Con from 1.2807e-005 to 1.2807e-005
Heightened Def Con from 1.2807e-005 to 1.2807e-005
Heightened Def Con from 1.2807e-005 to 1.2807e-005
Heightened Def Con from 1.2807e-005 to 1.2807e-005
Heightened Def Con from 1.2807e-005 to 1.2807e-005
Heightened Def Con from 1.2807e-005 to 1.2807e-005
Heightened Def Con from 1.2807e-005 to 1.28071e-005
Heightened Def Con from 1.28071e-005 to 1.28071e-005
Heightened Def Con from 1.28071e-005 to 1.28071e-005
Heightened Def Con from 1.28071e-005 to 1.28071e-005
Heightened Def Con from 1.28071e-005 to 1.28071e-005
Heightened Def Con from 1.28071e-005 to 1.28071e-005
Heightened Def Con from 1.28071e-005 to 1.28071e-005
Heightened Def Con from 1.28071e-005 to 1.28071e-005
Heightened Def Con from 1.28071e-005 to 1.28071e-005
Heightened Def Con from 1.28071e-005 to 1.28071e-005
Heightened Def Con from 1.28071e-005 to 1.28071e-005
Heightened Def Con from 1.28071e-005 to 1.28071e-005
Heightened Def Con from 1.28071e-005 to 1.28071e-005
Heightened Def Con from 1.28071e-005 to 1.28071e-005
Heightened Def Con from 1.28071e-005 to 1.28071e-005
Heightened Def Con from 1.28071e-005 to 1.28071e-005
Heightened Def Con from 1.28071e-005 to 1.28071e-005
Heightened Def Con from 1.28071e-005 to 1.28071e-005
Heightened Def Con from 1.28071e-005 to 1.28071e-005
Heightened Def Con from 1.28071e-005 to 1.28071e-005
Heightened Def Con from 1.28071e-005 to 1.28071e-005
Heightened Def Con from 1.28071e-005 to 1.28071e-005
Heightened Def Con from 1.28072e-005 to 1.28072e-005
Heightened Def Con from 1.28072e-005 to 1.28072e-005
Heightened Def Con from 1.28072e-005 to 1.28072e-005
Heightened Def Con from 1.28072e-005 to 1.28072e-005
Heightened Def Con from 1.28072e-005 to 1.28072e-005
Heightened Def Con from 1.28072e-005 to 1.28072e-005
Heightened Def Con from 1.28072e-005 to 1.28072e-005
Heightened Def Con from 1.28072e-005 to 1.28072e-005
Heightened Def Con from 1.28072e-005 to 1.28072e-005
Heightened Def Con from 1.28072e-005 to 1.28072e-005
Heightened Def Con from 1.28072e-005 to 1.28072e-005
Heightened Def Con from 1.28073e-005 to 1.28073e-005
Heightened Def Con from 1.28073e-005 to 1.28073e-005
Heightened Def Con from 1.28073e-005 to 1.28073e-005
Heightened Def Con from 1.28073e-005 to 1.28073e-005
Heightened Def Con from 1.28073e-005 to 1.28073e-005
Heightened Def Con from 1.28073e-005 to 1.28073e-005
Heightened Def Con from 1.28073e-005 to 1.28073e-005
Heightened Def Con from 1.28073e-005 to 1.28073e-005
Heightened Def Con from 1.28073e-005 to 1.28073e-005
Heightened Def Con from 1.28073e-005 to 1.28073e-005
Heightened Def Con from 1.28073e-005 to 1.28073e-005
Heightened Def Con from 1.28073e-005 to 1.28073e-005
Heightened Def Con from 1.28073e-005 to 1.28073e-005
Heightened Def Con from 1.28073e-005 to 1.28073e-005
Heightened Def Con from 1.28073e-005 to 1.28073e-005
Heightened Def Con from 1.28073e-005 to 1.28073e-005
Heightened Def Con from 1.28073e-005 to 1.28073e-005
Heightened Def Con from 1.28073e-005 to 1.28073e-005
Heightened Def Con from 1.28073e-005 to 1.28074e-005
Heightened Def Con from 1.28074e-005 to 1.28074e-005
Heightened Def Con from 1.28074e-005 to 1.28074e-005
Heightened Def Con from 1.28074e-005 to 1.28075e-005
Heightened Def Con from 1.28075e-005 to 1.28155e-005
Heightened Def Con from 1.28505e-005 to 1.28535e-005
Heightened Def Con from 1.29891e-005 to 1.29921e-005
Heightened Def Con from 1.30529e-005 to 1.30559e-005
Heightened Def Con from 1.31191e-005 to 1.31221e-005
Heightened Def Con from 1.31862e-005 to 1.31892e-005
Heightened Def Con from 1.32524e-005 to 1.32554e-005
Heightened Def Con from 1.33042e-005 to 1.33062e-005
Heightened Def Con from 1.33138e-005 to 1.33158e-005
Heightened Def Con from 1.3319e-005 to 1.33192e-005
Heightened Def Con from 1.33193e-005 to 1.33193e-005
Heightened Def Con from 1.33193e-005 to 1.33193e-005
Heightened Def Con from 1.33193e-005 to 1.33193e-005
Heightened Def Con from 1.33193e-005 to 1.33194e-005
Heightened Def Con from 1.33194e-005 to 1.33195e-005
Heightened Def Con from 1.33196e-005 to 1.33196e-005
Heightened Def Con from 1.33198e-005 to 1.33198e-005
Heightened Def Con from 1.332e-005 to 1.332e-005
Heightened Def Con from 1.33202e-005 to 1.33202e-005
Heightened Def Con from 1.33204e-005 to 1.33205e-005
Heightened Def Con from 1.33206e-005 to 1.33206e-005
Heightened Def Con from 1.33206e-005 to 1.33206e-005
Heightened Def Con from 1.33206e-005 to 1.33206e-005
Heightened Def Con from 1.33207e-005 to 1.33207e-005
Heightened Def Con from 1.33207e-005 to 1.33207e-005
Heightened Def Con from 1.33208e-005 to 1.33208e-005
Heightened Def Con from 1.33209e-005 to 1.33209e-005
Heightened Def Con from 1.3321e-005 +to 1.33211e-005
Heightened Def Con from 1.33211e-005 to 1.33211e-005
Heightened Def Con from 1.33213e-005 to 1.33213e-005
Heightened Def Con from 1.33214e-005 to 1.33214e-005
Heightened Def Con from 1.33215e-005 to 1.33215e-005
Heightened Def Con from 1.33215e-005 to 1.33265e-005
Heightened Def Con from 1.33531e-005 to 1.33601e-005
Heightened Def Con from 1.49919e-005 to 1.49939e-005
Heightened Def Con from 1.49971e-005 to 1.49991e-005
Heightened Def Con from 1.50003e-005 to 1.50083e-005
Heightened Def Con from 1.50676e-005 to 1.50706e-005
Heightened Def Con from 1.51351e-005 to 1.51381e-005
Heightened Def Con from 1.51561e-005 to 1.51562e-005
Heightened Def Con from 1.51563e-005 to 1.51564e-005
Heightened Def Con from 1.51566e-005 to 1.51566e-005
Heightened Def Con from 1.51568e-005 to 1.51568e-005
Heightened Def Con from 1.51568e-005 to 1.51568e-005
Heightened Def Con from 1.5157e-005 to 1.5157e-005
Heightened Def Con from 1.51573e-005 to 1.51574e-005
Heightened Def Con from 1.51574e-005 +to 1.51574e-005
Heightened Def Con from 1.51576e-005 to 1.51576e-005
Heightened Def Con from 1.51576e-005 to 1.51576e-005
Heightened Def Con from 1.51577e-005 to 1.51577e-005
Heightened Def Con from 1.51577e-005 to 1.51577e-005
Heightened Def Con from 1.51578e-005 to 1.51579e-005
Heightened Def Con from 1.5158e-005 to 1.51581e-005
Heightened Def Con from 1.51581e-005 to 1.51581e-005
Heightened Def Con from 1.51582e-005 to 1.51583e-005
Heightened Def Con from 1.51584e-005 to 1.51585e-005
Heightened Def Con from 1.5159e-005 to 1.5169e-005
Heightened Def Con from 1.52017e-005 to 1.52057e-005
Heightened Def Con from 1.52689e-005 to 1.52719e-005
Heightened Def Con from 1.53361e-005 to 1.53391e-005
Heightened Def Con from 1.54024e-005 to 1.54054e-005
Heightened Def Con from 1.54695e-005 to 1.54725e-005
Heightened Def Con from 1.5536e-005 to 1.5539e-005
Heightened Def Con from 1.56038e-005 to 1.56068e-005
Heightened Def Con from 1.56563e-005 to 1.56583e-005
Heightened Def Con from 1.56659e-005 to 1.56679e-005
Heightened Def Con from 1.56689e-005 to 1.56689e-005
Heightened Def Con from 1.56689e-005 to 1.56689e-005
Heightened Def Con from 1.5669e-005 to 1.5669e-005
Heightened Def Con from 1.5669e-005 to 1.5669e-005
Heightened Def Con from 1.5669e-005 to 1.5669e-005
Heightened Def Con from 1.5669e-005 to 1.5669e-005
Heightened Def Con from 1.5669e-005 to 1.5669e-005
Heightened Def Con from 1.5669e-005 to 1.5669e-005
Heightened Def Con from 1.56691e-005 to 1.56691e-005
Heightened Def Con from 1.56694e-005 to 1.56694e-005
Heightened Def Con from 1.56695e-005 to 1.56695e-005
Heightened Def Con from 1.56695e-005 to 1.56695e-005
Heightened Def Con from 1.56695e-005 to 1.56695e-005
Heightened Def Con from 1.56696e-005 to 1.56696e-005
Heightened Def Con from 1.56696e-005 to 1.56696e-005
Heightened Def Con from 1.56696e-005 to 1.56696e-005
Heightened Def Con from 1.56696e-005 to 1.56696e-005
Heightened Def Con from 1.56696e-005 to 1.56703e-005
Heightened Def Con from 1.56703e-005 to 1.56733e-005
Heightened Def Con from 1.56809e-005 to 1.56869e-005
Heightened Def Con from 1.71689e-005 to 1.71729e-005
Heightened Def Con from 1.74269e-005 to 1.74289e-005
Heightened Def Con from 1.76346e-005 to 1.76366e-005
Heightened Def Con from 1.76462e-005 to 1.76552e-005
Heightened Def Con from 1.77066e-005 to 1.77086e-005
Heightened Def Con from 1.77156e-005 to 1.77186e-005
Heightened Def Con from 1.77827e-005 to 1.77857e-005
Heightened Def Con from 1.78034e-005 to 1.78034e-005
Heightened Def Con from 1.78034e-005 to 1.78034e-005
Heightened Def Con from 1.78034e-005 to 1.78034e-005
Heightened Def Con from 1.78034e-005 to 1.78034e-005
Heightened Def Con from 1.78034e-005 to 1.78034e-005
Heightened Def Con from 1.78034e-005 to 1.78034e-005
Heightened Def Con from 1.78034e-005 to 1.78034e-005
Heightened Def Con from 1.78034e-005 to 1.78034e-005
Heightened Def Con from 1.78034e-005 to 1.78034e-005
Heightened Def Con from 1.78034e-005 to 1.78034e-005
Heightened Def Con from 1.78034e-005 to 1.78034e-005
Heightened Def Con from 1.78034e-005 to 1.78034e-005
Heightened Def Con from 1.78034e-005 to 1.78035e-005
Heightened Def Con from 1.78035e-005 to 1.78035e-005
Heightened Def Con from 1.78035e-005 to 1.78035e-005
Heightened Def Con from 1.78035e-005 to 1.78035e-005
Heightened Def Con from 1.78035e-005 to 1.78035e-005
Heightened Def Con from 1.78035e-005 to 1.78035e-005
Heightened Def Con from 1.78035e-005 to 1.78035e-005
Heightened Def Con from 1.78035e-005 to 1.78035e-005
Heightened Def Con from 1.78035e-005 to 1.78035e-005
Heightened Def Con from 1.78035e-005 to 1.78035e-005
Heightened Def Con from 1.78035e-005 to 1.78035e-005
Heightened Def Con from 1.78035e-005 to 1.78035e-005
Heightened Def Con from 1.78035e-005 to 1.78035e-005
Heightened Def Con from 1.78035e-005 to 1.78035e-005
Heightened Def Con from 1.78035e-005 to 1.78035e-005
Heightened Def Con from 1.78035e-005 to 1.78035e-005
Heightened Def Con from 1.78035e-005 to 1.78035e-005
Heightened Def Con from 1.78035e-005 to 1.78035e-005
Heightened Def Con from 1.78035e-005 to 1.78035e-005
Heightened Def Con from 1.78035e-005 to 1.78035e-005
Heightened Def Con from 1.78035e-005 to 1.78035e-005
Heightened Def Con from 1.78035e-005 to 1.78035e-005
Heightened Def Con from 1.78035e-005 to 1.78035e-005
Heightened Def Con from 1.78035e-005 to 1.78035e-005
Heightened Def Con from 1.78035e-005 to 1.78035e-005
Heightened Def Con from 1.78035e-005 to 1.78036e-005
Heightened Def Con from 1.78037e-005 to 1.78037e-005
Heightened Def Con from 1.78037e-005 to 1.78037e-005
Heightened Def Con from 1.78037e-005 to 1.78037e-005
Heightened Def Con from 1.78037e-005 to 1.78037e-005
Heightened Def Con from 1.78037e-005 to 1.78037e-005
Heightened Def Con from 1.78037e-005 to 1.78037e-005
Heightened Def Con from 1.78037e-005 to 1.78037e-005
Heightened Def Con from 1.78037e-005 to 1.78037e-005
Heightened Def Con from 1.78037e-005 to 1.78037e-005
Heightened Def Con from 1.78037e-005 to 1.78037e-005
Heightened Def Con from 1.78037e-005 to 1.78037e-005
Heightened Def Con from 1.78037e-005 to 1.78037e-005
Heightened Def Con from 1.78037e-005 to 1.78037e-005
Heightened Def Con from 1.78037e-005 to 1.78037e-005
Heightened Def Con from 1.78037e-005 to 1.78037e-005
Heightened Def Con from 1.78037e-005 to 1.78037e-005
Heightened Def Con from 1.78037e-005 to 1.78037e-005
Heightened Def Con from 1.78037e-005 to 1.78037e-005
Heightened Def Con from 1.7804e-005 to 1.7804e-005
Heightened Def Con from 1.7804e-005 to 1.7804e-005
Heightened Def Con from 1.7804e-005 to 1.7804e-005
Heightened Def Con from 1.7804e-005 to 1.7804e-005
Heightened Def Con from 1.7804e-005 to 1.7804e-005
Heightened Def Con from 1.7804e-005 to 1.7804e-005
Heightened Def Con from 1.7804e-005 to 1.7804e-005
Heightened Def Con from 1.7804e-005 to 1.7804e-005
Heightened Def Con from 1.7804e-005 to 1.78041e-005
Heightened Def Con from 1.78041e-005 to 1.78041e-005
Heightened Def Con from 1.78041e-005 to 1.78041e-005
Heightened Def Con from 1.78041e-005 to 1.78041e-005
Heightened Def Con from 1.78041e-005 to 1.78041e-005
Heightened Def Con from 1.78041e-005 to 1.78041e-005
Heightened Def Con from 1.78041e-005 to 1.78041e-005
Heightened Def Con from 1.78041e-005 to 1.78041e-005
Heightened Def Con from 1.78041e-005 to 1.78041e-005
Heightened Def Con from 1.78041e-005 to 1.78041e-005
Heightened Def Con from 1.78041e-005 to 1.78041e-005
Heightened Def Con from 1.78041e-005 to 1.78041e-005
Heightened Def Con from 1.78041e-005 to 1.78041e-005
Heightened Def Con from 1.78041e-005 to 1.78041e-005
Heightened Def Con from 1.78041e-005 to 1.78041e-005
Heightened Def Con from 1.78041e-005 to 1.78041e-005
Heightened Def Con from 1.78041e-005 to 1.78041e-005
Heightened Def Con from 1.78041e-005 to 1.78041e-005
Heightened Def Con from 1.78041e-005 to 1.78041e-005
Heightened Def Con from 1.78041e-005 to 1.78041e-005
Heightened Def Con from 1.78041e-005 to 1.78041e-005
Heightened Def Con from 1.78041e-005 to 1.78042e-005
Heightened Def Con from 1.78042e-005 to 1.78122e-005
Heightened Def Con from 1.7849e-005 to 1.7853e-005
Heightened Def Con from 1.79844e-005 to 1.79874e-005
Heightened Def Con from 1.80517e-005 to 1.80547e-005
Heightened Def Con from 1.81194e-005 to 1.81224e-005
Heightened Def Con from 1.82519e-005 to 1.82549e-005
Heightened Def Con from 1.83035e-005 to 1.83055e-005
Heightened Def Con from 1.83131e-005 to 1.83151e-005
Heightened Def Con from 1.83185e-005 to 1.83185e-005
Heightened Def Con from 1.83187e-005 to 1.83188e-005
Heightened Def Con from 1.83188e-005 to 1.83188e-005
Heightened Def Con from 1.83189e-005 to 1.83189e-005
Heightened Def Con from 1.83189e-005 to 1.83189e-005
Heightened Def Con from 1.83189e-005 to 1.83189e-005
Heightened Def Con from 1.8319e-005 to 1.8319e-005
Heightened Def Con from 1.8319e-005 to 1.8319e-005
Heightened Def Con from 1.83191e-005 to 1.83191e-005
Heightened Def Con from 1.83192e-005 to 1.83192e-005
Heightened Def Con from 1.83192e-005 to 1.83192e-005
Heightened Def Con from 1.83193e-005 to 1.83193e-005
Heightened Def Con from 1.83193e-005 to 1.83193e-005
Heightened Def Con from 1.83193e-005 to 1.83193e-005
Heightened Def Con from 1.83193e-005 to 1.83193e-005
Heightened Def Con from 1.83193e-005 to 1.83193e-005
Heightened Def Con from 1.83195e-005 to 1.83195e-005
Heightened Def Con from 1.83195e-005 to 1.83195e-005
Heightened Def Con from 1.83197e-005 to 1.83197e-005
Heightened Def Con from 1.83199e-005 to 1.83199e-005
Heightened Def Con from 1.83199e-005 to 1.83199e-005
Heightened Def Con from 1.83199e-005 to 1.83199e-005
Heightened Def Con from 1.83201e-005 to 1.83201e-005
Heightened Def Con from 1.83201e-005 to 1.83201e-005
Heightened Def Con from 1.83201e-005 to 1.83201e-005
Heightened Def Con from 1.83202e-005 to 1.83202e-005
Heightened Def Con from 1.83202e-005 to 1.83203e-005
Heightened Def Con from 1.83203e-005 to 1.83204e-005
Heightened Def Con from 1.83204e-005 to 1.83204e-005
Heightened Def Con from 1.83204e-005 to 1.83204e-005
Heightened Def Con from 1.83204e-005 to 1.83204e-005
Heightened Def Con from 1.83206e-005 to 1.83206e-005
Heightened Def Con from 1.83206e-005 to 1.83206e-005
Heightened Def Con from 1.83206e-005 to 1.83206e-005
Heightened Def Con from 1.83207e-005 to 1.83208e-005
Heightened Def Con from 1.83208e-005 to 1.83258e-005
Heightened Def Con from 1.83468e-005 to 1.83588e-005
Heightened Def Con from 1.83589e-005 to 1.83619e-005
Heightened Def Con from 2.00002e-005 to 2.00082e-005
Heightened Def Con from 2.00711e-005 to 2.00741e-005
Heightened Def Con from 2.00742e-005 to 2.00772e-005
Heightened Def Con from 2.01363e-005 to 2.01393e-005
Heightened Def Con from 2.01557e-005 to 2.01587e-005
Heightened Def Con from 2.01614e-005 to 2.01617e-005
Heightened Def Con from 2.0162e-005 to 2.0162e-005
Heightened Def Con from 2.0162e-005 to 2.0162e-005
Heightened Def Con from 2.01624e-005 to 2.01628e-005
Heightened Def Con from 2.01634e-005 to 2.01634e-005
Heightened Def Con from 2.01635e-005 to 2.01635e-005
Heightened Def Con from 2.01636e-005 to 2.01636e-005
Heightened Def Con from 2.01641e-005 to 2.01641e-005
Heightened Def Con from 2.01642e-005 to 2.01642e-005
Heightened Def Con from 2.01642e-005 to 2.01643e-005
Heightened Def Con from 2.01643e-005 to 2.01645e-005
Heightened Def Con from 2.01645e-005 to 2.01755e-005
Heightened Def Con from 2.02003e-005 to 2.02033e-005
Heightened Def Con from 2.02037e-005 to 2.02067e-005
Heightened Def Con from 2.02121e-005 to 2.02151e-005
Heightened Def Con from 2.04763e-005 to 2.04793e-005
Heightened Def Con from 2.05426e-005 to 2.05456e-005
Heightened Def Con from 2.06081e-005 to 2.06111e-005
Heightened Def Con from 2.06607e-005 to 2.06627e-005
Heightened Def Con from 2.06702e-005 to 2.06722e-005
Heightened Def Con from 2.06734e-005 to 2.06734e-005
Heightened Def Con from 2.06734e-005 to 2.06734e-005
Heightened Def Con from 2.06735e-005 to 2.06735e-005
Heightened Def Con from 2.06735e-005 to 2.06735e-005
Heightened Def Con from 2.06735e-005 to 2.06735e-005
Heightened Def Con from 2.06735e-005 to 2.06735e-005
Heightened Def Con from 2.06735e-005 to 2.06736e-005
Heightened Def Con from 2.06736e-005 to 2.06736e-005
Heightened Def Con from 2.06736e-005 +to 2.06736e-005
Heightened Def Con from 2.06736e-005 to 2.06736e-005
Heightened Def Con from 2.06737e-005 to 2.06737e-005
Heightened Def Con from 2.06738e-005 to 2.06738e-005
Heightened Def Con from 2.06738e-005 to 2.06738e-005
Heightened Def Con from 2.06738e-005 to 2.06738e-005
Heightened Def Con from 2.06738e-005 to 2.06738e-005
Heightened Def Con from 2.06739e-005 to 2.06739e-005
Heightened Def Con from 2.06739e-005 to 2.06739e-005
Heightened Def Con from 2.06739e-005 to 2.06739e-005
Heightened Def Con from 2.0674e-005 to 2.0674e-005
Heightened Def Con from 2.0674e-005 to 2.0674e-005
Heightened Def Con from 2.0674e-005 to 2.0674e-005
Heightened Def Con from 2.0674e-005 to 2.0674e-005
Heightened Def Con from 2.0674e-005 to 2.0674e-005
Heightened Def Con from 2.0674e-005 to 2.0674e-005
Heightened Def Con from 2.0674e-005 to 2.06741e-005
Heightened Def Con from 2.06741e-005 to 2.06741e-005
Heightened Def Con from 2.06741e-005 to 2.06741e-005
Heightened Def Con from 2.06741e-005 to 2.06742e-005
Heightened Def Con from 2.06742e-005 to 2.06748e-005
Heightened Def Con from 2.06748e-005 to 2.06788e-005
Heightened Def Con from 2.06866e-005 to 2.06916e-005
Heightened Def Con from 2.07406e-005 to 2.07436e-005
Heightened Def Con from 2.21667e-005 to 2.21687e-005
Heightened Def Con from 2.26468e-005 to 2.26548e-005
Heightened Def Con from 2.27826e-005 to 2.27856e-005
Heightened Def Con from 2.28032e-005 to 2.28032e-005
Heightened Def Con from 2.28032e-005 to 2.28032e-005
Heightened Def Con from 2.28032e-005 to 2.28032e-005
Heightened Def Con from 2.28032e-005 to 2.28032e-005
Heightened Def Con from 2.28032e-005 to 2.28032e-005
Heightened Def Con from 2.28032e-005 to 2.28032e-005
Heightened Def Con from 2.28032e-005 to 2.28032e-005
Heightened Def Con from 2.28032e-005 to 2.28032e-005
Heightened Def Con from 2.28032e-005 to 2.28032e-005
Heightened Def Con from 2.28032e-005 to 2.28032e-005
Heightened Def Con from 2.28032e-005 to 2.28032e-005
Heightened Def Con from 2.28032e-005 to 2.28032e-005
Heightened Def Con from 2.28032e-005 to 2.28032e-005
Heightened Def Con from 2.28033e-005 to 2.28033e-005
Heightened Def Con from 2.28033e-005 to 2.28033e-005
Heightened Def Con from 2.28033e-005 to 2.28033e-005
Heightened Def Con from 2.28033e-005 to 2.28033e-005
Heightened Def Con from 2.28033e-005 to 2.28033e-005
Heightened Def Con from 2.28033e-005 to 2.28033e-005
Heightened Def Con from 2.28033e-005 to 2.28033e-005
Heightened Def Con from 2.28033e-005 to 2.28033e-005
Heightened Def Con from 2.28033e-005 to 2.28033e-005
Heightened Def Con from 2.28033e-005 to 2.28033e-005
Heightened Def Con from 2.28033e-005 to 2.28033e-005
Heightened Def Con from 2.28034e-005 to 2.28034e-005
Heightened Def Con from 2.28034e-005 to 2.28034e-005
Heightened Def Con from 2.28034e-005 to 2.28034e-005
Heightened Def Con from 2.28034e-005 to 2.28034e-005
Heightened Def Con from 2.28034e-005 to 2.28034e-005
Heightened Def Con from 2.28034e-005 to 2.28034e-005
Heightened Def Con from 2.28034e-005 to 2.28034e-005
Heightened Def Con from 2.28034e-005 to 2.28034e-005
Heightened Def Con from 2.28034e-005 to 2.28034e-005
Heightened Def Con from 2.28034e-005 to 2.28034e-005
Heightened Def Con from 2.28034e-005 to 2.28034e-005
Heightened Def Con from 2.28034e-005 to 2.28034e-005
Heightened Def Con from 2.28038e-005 to 2.28038e-005
Heightened Def Con from 2.28038e-005 to 2.28038e-005
Heightened Def Con from 2.28038e-005 to 2.28038e-005
Heightened Def Con from 2.28038e-005 to 2.28038e-005
Heightened Def Con from 2.28038e-005 to 2.28038e-005
Heightened Def Con from 2.28038e-005 to 2.28038e-005
Heightened Def Con from 2.28038e-005 to 2.28038e-005
Heightened Def Con from 2.28038e-005 to 2.28038e-005
Heightened Def Con from 2.28038e-005 to 2.28038e-005
Heightened Def Con from 2.28038e-005 to 2.28038e-005
Heightened Def Con from 2.28038e-005 to 2.28038e-005
Heightened Def Con from 2.28038e-005 to 2.28038e-005
Heightened Def Con from 2.28038e-005 to 2.28038e-005
Heightened Def Con from 2.28038e-005 to 2.28038e-005
Heightened Def Con from 2.28038e-005 to 2.28038e-005
Heightened Def Con from 2.28038e-005 to 2.28038e-005
Heightened Def Con from 2.28038e-005 to 2.28038e-005
Heightened Def Con from 2.28038e-005 to 2.28038e-005
Heightened Def Con from 2.28038e-005 to 2.28038e-005
Heightened Def Con from 2.28038e-005 to 2.28038e-005
Heightened Def Con from 2.28039e-005 to 2.28039e-005
Heightened Def Con from 2.28039e-005 to 2.28039e-005
Heightened Def Con from 2.28039e-005 to 2.28039e-005
Heightened Def Con from 2.28039e-005 to 2.28039e-005
Heightened Def Con from 2.28039e-005 to 2.28039e-005
Heightened Def Con from 2.28039e-005 to 2.28039e-005
Heightened Def Con from 2.28039e-005 to 2.28039e-005
Heightened Def Con from 2.28039e-005 to 2.28039e-005
Heightened Def Con from 2.28039e-005 to 2.28039e-005
Heightened Def Con from 2.28039e-005 to 2.28039e-005
Heightened Def Con from 2.28039e-005 to 2.28039e-005
Heightened Def Con from 2.28039e-005 to 2.28039e-005
Heightened Def Con from 2.28039e-005 to 2.28039e-005
Heightened Def Con from 2.28039e-005 to 2.28039e-005
Heightened Def Con from 2.28039e-005 to 2.28039e-005
Heightened Def Con from 2.28039e-005 to 2.28039e-005
Heightened Def Con from 2.28039e-005 to 2.28039e-005
Heightened Def Con from 2.28039e-005 to 2.28039e-005
Heightened Def Con from 2.28039e-005 to 2.28039e-005
Heightened Def Con from 2.28039e-005 to 2.28039e-005
Heightened Def Con from 2.28039e-005 to 2.28039e-005
Heightened Def Con from 2.28039e-005 to 2.28039e-005
Heightened Def Con from 2.28039e-005 to 2.28039e-005
Heightened Def Con from 2.28039e-005 to 2.28039e-005
Heightened Def Con from 2.28039e-005 to 2.28039e-005
Heightened Def Con from 2.28039e-005 to 2.28041e-005
Heightened Def Con from 2.28041e-005 to 2.28121e-005
Heightened Def Con from 2.28497e-005 to 2.28527e-005
Heightened Def Con from 2.29811e-005 to 2.29831e-005
Heightened Def Con from 2.29842e-005 to 2.29872e-005
Heightened Def Con from 2.30512e-005 to 2.30513e-005
Heightened Def Con from 2.30513e-005 to 2.30543e-005
Heightened Def Con from 2.3115e-005 to 2.3116e-005
Heightened Def Con from 2.31161e-005 to 2.31201e-005
Heightened Def Con from 2.31839e-005 to 2.31869e-005
Heightened Def Con from 2.32508e-005 to 2.32538e-005
Heightened Def Con from 2.33174e-005 to 2.33174e-005
Heightened Def Con from 2.33176e-005 to 2.33176e-005
Heightened Def Con from 2.33176e-005 to 2.3318e-005
Heightened Def Con from 2.33181e-005 to 2.33181e-005
Heightened Def Con from 2.33181e-005 to 2.33181e-005
Heightened Def Con from 2.33181e-005 to 2.33181e-005
Heightened Def Con from 2.33183e-005 to 2.33183e-005
Heightened Def Con from 2.33183e-005 to 2.33183e-005
Heightened Def Con from 2.33184e-005 to 2.33184e-005
Heightened Def Con from 2.33184e-005 to 2.33184e-005
Heightened Def Con from 2.33184e-005 to 2.33184e-005
Heightened Def Con from 2.33184e-005 to 2.33184e-005
Heightened Def Con from 2.33185e-005 to 2.33185e-005
Heightened Def Con from 2.33186e-005 to 2.33186e-005
Heightened Def Con from 2.33186e-005 to 2.33186e-005
Heightened Def Con from 2.33187e-005 to 2.33188e-005
Heightened Def Con from 2.3319e-005 to 2.3319e-005
Heightened Def Con from 2.3319e-005 to 2.3319e-005
Heightened Def Con from 2.3319e-005 to 2.3319e-005
Heightened Def Con from 2.3319e-005 to 2.3319e-005
Heightened Def Con from 2.3319e-005 to 2.33191e-005
Heightened Def Con from 2.33192e-005 to 2.33192e-005
Heightened Def Con from 2.33195e-005 to 2.33195e-005
Heightened Def Con from 2.33195e-005 to 2.33197e-005
Heightened Def Con from 2.33197e-005 to 2.33237e-005
Heightened Def Con from 2.33483e-005 to 2.33563e-005
Heightened Def Con from 2.3357e-005 to 2.336e-005
Heightened Def Con from 2.49759e-005 to 2.49779e-005
Heightened Def Con from 2.50001e-005 to 2.50081e-005
Heightened Def Con from 2.51353e-005 to 2.51383e-005
Heightened Def Con from 2.51561e-005 to 2.51563e-005
Heightened Def Con from 2.51569e-005 to 2.51569e-005
Heightened Def Con from 2.51569e-005 to 2.5157e-005
Heightened Def Con from 2.51576e-005 to 2.51576e-005
Heightened Def Con from 2.51578e-005 to 2.51578e-005
Heightened Def Con from 2.51579e-005 to 2.51579e-005
Heightened Def Con from 2.5158e-005 to 2.51581e-005
Heightened Def Con from 2.51583e-005 to 2.51584e-005
Heightened Def Con from 2.51584e-005 to 2.51584e-005
Heightened Def Con from 2.51584e-005 to 2.51584e-005
Heightened Def Con from 2.51585e-005 to 2.51585e-005
Heightened Def Con from 2.51585e-005 to 2.51585e-005
Heightened Def Con from 2.51587e-005 to 2.51587e-005
Heightened Def Con from 2.51587e-005 to 2.51593e-005
Heightened Def Con from 2.51594e-005 to 2.51694e-005
Heightened Def Con from 2.52018e-005 to 2.52078e-005
Heightened Def Con from 2.52078e-005 to 2.52108e-005
Heightened Def Con from 2.52688e-005 to 2.52718e-005
Heightened Def Con from 2.54745e-005 to 2.54775e-005
Heightened Def Con from 2.55382e-005 to 2.55412e-005
Heightened Def Con from 2.56054e-005 to 2.56084e-005
Heightened Def Con from 2.56576e-005 to 2.56596e-005
Heightened Def Con from 2.56672e-005 to 2.56692e-005
Heightened Def Con from 2.56703e-005 to 2.56713e-005
Heightened Def Con from 2.56716e-005 to 2.56716e-005
Heightened Def Con from 2.56716e-005 to 2.56716e-005
Heightened Def Con from 2.56718e-005 to 2.56718e-005
Heightened Def Con from 2.56718e-005 to 2.56718e-005
Heightened Def Con from 2.56718e-005 to 2.56718e-005
Heightened Def Con from 2.56718e-005 to 2.56726e-005
Heightened Def Con from 2.56726e-005 to 2.56766e-005
Heightened Def Con from 2.56839e-005 to 2.56889e-005
Heightened Def Con from 2.57375e-005 to 2.57405e-005
Heightened Def Con from 2.76445e-005 to 2.76555e-005
Heightened Def Con from 2.77814e-005 to 2.77834e-005
Heightened Def Con from 2.77834e-005 to 2.77864e-005
Heightened Def Con from 2.78046e-005 to 2.78046e-005
Heightened Def Con from 2.78046e-005 to 2.78046e-005
Heightened Def Con from 2.78046e-005 to 2.78046e-005
Heightened Def Con from 2.78046e-005 to 2.78046e-005
Heightened Def Con from 2.78046e-005 to 2.78046e-005
Heightened Def Con from 2.78046e-005 to 2.78046e-005
Heightened Def Con from 2.78046e-005 to 2.78046e-005
Heightened Def Con from 2.78046e-005 to 2.78046e-005
Heightened Def Con from 2.78046e-005 to 2.78046e-005
Heightened Def Con from 2.78046e-005 to 2.78046e-005
Heightened Def Con from 2.78046e-005 to 2.78046e-005
Heightened Def Con from 2.78046e-005 to 2.78046e-005
Heightened Def Con from 2.78046e-005 to 2.78046e-005
Heightened Def Con from 2.78046e-005 to 2.78046e-005
Heightened Def Con from 2.78046e-005 to 2.78046e-005
Heightened Def Con from 2.78046e-005 to 2.78046e-005
Heightened Def Con from 2.78046e-005 to 2.78046e-005
Heightened Def Con from 2.78046e-005 to 2.78046e-005
Heightened Def Con from 2.78046e-005 to 2.78046e-005
Heightened Def Con from 2.78046e-005 to 2.78046e-005
Heightened Def Con from 2.78046e-005 to 2.78046e-005
Heightened Def Con from 2.78047e-005 to 2.78047e-005
Heightened Def Con from 2.78047e-005 to 2.78047e-005
Heightened Def Con from 2.78047e-005 to 2.78047e-005
Heightened Def Con from 2.78047e-005 to 2.78047e-005
Heightened Def Con from 2.78047e-005 to 2.78047e-005
Heightened Def Con from 2.78047e-005 to 2.78047e-005
Heightened Def Con from 2.78047e-005 to 2.78047e-005
Heightened Def Con from 2.78047e-005 to 2.78047e-005
Heightened Def Con from 2.78047e-005 to 2.78047e-005
Heightened Def Con from 2.78047e-005 to 2.78047e-005
Heightened Def Con from 2.78047e-005 to 2.78047e-005
Heightened Def Con from 2.78047e-005 to 2.78047e-005
Heightened Def Con from 2.78047e-005 to 2.78047e-005
Heightened Def Con from 2.78047e-005 to 2.78047e-005
Heightened Def Con from 2.78047e-005 to 2.78047e-005
Heightened Def Con from 2.78047e-005 to 2.78047e-005
Heightened Def Con from 2.78047e-005 to 2.78047e-005
Heightened Def Con from 2.78047e-005 to 2.78047e-005
Heightened Def Con from 2.78048e-005 to 2.78048e-005
Heightened Def Con from 2.78048e-005 to 2.78048e-005
Heightened Def Con from 2.78048e-005 to 2.78048e-005
Heightened Def Con from 2.78048e-005 to 2.78048e-005
Heightened Def Con from 2.78048e-005 to 2.78048e-005
Heightened Def Con from 2.78048e-005 to 2.78048e-005
Heightened Def Con from 2.78048e-005 to 2.78048e-005
Heightened Def Con from 2.78048e-005 to 2.78048e-005
Heightened Def Con from 2.78048e-005 to 2.78048e-005
Heightened Def Con from 2.78048e-005 to 2.78048e-005
Heightened Def Con from 2.78048e-005 to 2.78048e-005
Heightened Def Con from 2.78048e-005 to 2.78048e-005
Heightened Def Con from 2.78048e-005 to 2.78048e-005
Heightened Def Con from 2.78048e-005 to 2.78048e-005
Heightened Def Con from 2.78048e-005 to 2.78048e-005
Heightened Def Con from 2.78048e-005 to 2.78048e-005
Heightened Def Con from 2.78048e-005 to 2.78048e-005
Heightened Def Con from 2.78048e-005 to 2.78048e-005
Heightened Def Con from 2.78048e-005 to 2.78048e-005
Heightened Def Con from 2.78048e-005 to 2.78048e-005
Heightened Def Con from 2.78048e-005 to 2.78048e-005
Heightened Def Con from 2.78048e-005 to 2.78048e-005
Heightened Def Con from 2.78048e-005 to 2.78048e-005
Heightened Def Con from 2.78048e-005 to 2.78048e-005
Heightened Def Con from 2.78048e-005 to 2.78048e-005
Heightened Def Con from 2.78048e-005 to 2.7805e-005
Heightened Def Con from 2.7805e-005 to 2.7813e-005
Heightened Def Con from 2.78508e-005 to 2.78538e-005
Heightened Def Con from 2.79169e-005 to 2.79209e-005
Heightened Def Con from 2.79842e-005 to 2.79845e-005
Heightened Def Con from 2.79845e-005 to 2.79875e-005
Heightened Def Con from 2.80515e-005 to 2.80545e-005
Heightened Def Con from 2.81178e-005 to 2.81208e-005
Heightened Def Con from 2.81842e-005 to 2.81872e-005
Heightened Def Con from 2.82512e-005 to 2.82542e-005
Heightened Def Con from 2.83152e-005 to 2.83182e-005
Heightened Def Con from 2.83183e-005 to 2.83183e-005
Heightened Def Con from 2.83183e-005 to 2.83183e-005
Heightened Def Con from 2.83183e-005 to 2.83183e-005
Heightened Def Con from 2.83185e-005 to 2.83185e-005
Heightened Def Con from 2.83185e-005 to 2.83185e-005
Heightened Def Con from 2.83187e-005 to 2.83187e-005
Heightened Def Con from 2.83187e-005 to 2.83187e-005
Heightened Def Con from 2.83187e-005 to 2.83188e-005
Heightened Def Con from 2.83188e-005 to 2.83188e-005
Heightened Def Con from 2.83189e-005 to 2.83189e-005
Heightened Def Con from 2.83189e-005 to 2.83189e-005
Heightened Def Con from 2.83191e-005 to 2.83191e-005
Heightened Def Con from 2.83191e-005 to 2.83191e-005
Heightened Def Con from 2.83191e-005 to 2.83192e-005
Heightened Def Con from 2.83192e-005 to 2.83192e-005
Heightened Def Con from 2.83193e-005 to 2.83193e-005
Heightened Def Con from 2.83193e-005 to 2.83194e-005
Heightened Def Con from 2.83195e-005 to 2.83195e-005
Heightened Def Con from 2.83195e-005 to 2.83195e-005
Heightened Def Con from 2.83195e-005 to 2.83196e-005
Heightened Def Con from 2.83197e-005 to 2.83198e-005
Heightened Def Con from 2.83198e-005 to 2.83198e-005
Heightened Def Con from 2.83198e-005 to 2.83198e-005
Heightened Def Con from 2.83198e-005 to 2.83198e-005
Heightened Def Con from 2.83199e-005 to 2.83199e-005
Heightened Def Con from 2.83199e-005 to 2.83199e-005
Heightened Def Con from 2.83199e-005 to 2.83199e-005
Heightened Def Con from 2.83199e-005 to 2.832e-005
Heightened Def Con from 2.832e-005 to 2.832e-005
Heightened Def Con from 2.832e-005 to 2.832e-005
Heightened Def Con from 2.832e-005 to 2.83201e-005
Heightened Def Con from 2.83201e-005 to 2.83201e-005
Heightened Def Con from 2.83201e-005 to 2.83201e-005
Heightened Def Con from 2.83202e-005 to 2.83202e-005
Heightened Def Con from 2.83202e-005 to 2.83202e-005
Heightened Def Con from 2.83202e-005 to 2.83202e-005
Heightened Def Con from 2.83202e-005 to 2.83202e-005
Heightened Def Con from 2.83202e-005 to 2.83202e-005
Heightened Def Con from 2.83202e-005 to 2.83202e-005
Heightened Def Con from 2.83202e-005 to 2.83203e-005
Heightened Def Con from 2.83203e-005 to 2.83205e-005
Heightened Def Con from 2.83205e-005 to 2.83245e-005
Heightened Def Con from 2.83253e-005 to 2.83283e-005
Heightened Def Con from 2.99034e-005 to 2.99054e-005
Heightened Def Con from 3e-005 to 3.0008e-005
Heightened Def Con from 3.00709e-005 to 3.00739e-005
Heightened Def Con from 3.01603e-005 to 3.01624e-005
Heightened Def Con from 3.01627e-005 to 3.01628e-005
Heightened Def Con from 3.01628e-005 to 3.01628e-005
Heightened Def Con from 3.01628e-005 to 3.01628e-005
Heightened Def Con from 3.01629e-005 to 3.01629e-005
Heightened Def Con from 3.01629e-005 to 3.0163e-005
Heightened Def Con from 3.0163e-005 to 3.0163e-005
Heightened Def Con from 3.01631e-005 to 3.01631e-005
Heightened Def Con from 3.01632e-005 to 3.01632e-005
Heightened Def Con from 3.01632e-005 to 3.01632e-005
Heightened Def Con from 3.01633e-005 to 3.01633e-005
Heightened Def Con from 3.01635e-005 to 3.01635e-005
Heightened Def Con from 3.01636e-005 to 3.01636e-005
Heightened Def Con from 3.01643e-005 to 3.01647e-005
Heightened Def Con from 3.01661e-005 to 3.01731e-005
Heightened Def Con from 3.02028e-005 to 3.02058e-005
Heightened Def Con from 3.02695e-005 to 3.02725e-005
Heightened Def Con from 3.03339e-005 to 3.03389e-005
Heightened Def Con from 3.04723e-005 to 3.04753e-005
Heightened Def Con from 3.06607e-005 to 3.06627e-005
Heightened Def Con from 3.06704e-005 to 3.06724e-005
Heightened Def Con from 3.06724e-005 to 3.06724e-005
Heightened Def Con from 3.06724e-005 to 3.06724e-005
Heightened Def Con from 3.06724e-005 to 3.06724e-005
Heightened Def Con from 3.06726e-005 to 3.06726e-005
Heightened Def Con from 3.06726e-005 to 3.06726e-005
Heightened Def Con from 3.06726e-005 to 3.06726e-005
Heightened Def Con from 3.06726e-005 to 3.06726e-005
Heightened Def Con from 3.06726e-005 to 3.06726e-005
Heightened Def Con from 3.06726e-005 to 3.06726e-005
Heightened Def Con from 3.06728e-005 to 3.06728e-005
Heightened Def Con from 3.06728e-005 to 3.06728e-005
Heightened Def Con from 3.06728e-005 to 3.06729e-005
Heightened Def Con from 3.06729e-005 to 3.06729e-005
Heightened Def Con from 3.0673e-005 to 3.0673e-005
Heightened Def Con from 3.0673e-005 to 3.0673e-005
Heightened Def Con from 3.0673e-005 to 3.0673e-005
Heightened Def Con from 3.0673e-005 to 3.0673e-005
Heightened Def Con from 3.0673e-005 to 3.0673e-005
Heightened Def Con from 3.06731e-005 to 3.06731e-005
Heightened Def Con from 3.06732e-005 to 3.06732e-005
Heightened Def Con from 3.06732e-005 to 3.06732e-005
Heightened Def Con from 3.06732e-005 to 3.06732e-005
Heightened Def Con from 3.06733e-005 to 3.06733e-005
Heightened Def Con from 3.06733e-005 to 3.06733e-005
Heightened Def Con from 3.06733e-005 to 3.06733e-005
Heightened Def Con from 3.06733e-005 to 3.06733e-005
Heightened Def Con from 3.06733e-005 to 3.06733e-005
Heightened Def Con from 3.06733e-005 to 3.06733e-005
Heightened Def Con from 3.06734e-005 to 3.06734e-005
Heightened Def Con from 3.06734e-005 to 3.06734e-005
Heightened Def Con from 3.06734e-005 to 3.06734e-005
Heightened Def Con from 3.06734e-005 to 3.06734e-005
Heightened Def Con from 3.06734e-005 to 3.06734e-005
Heightened Def Con from 3.06734e-005 to 3.06734e-005
Heightened Def Con from 3.06735e-005 to 3.06735e-005
Heightened Def Con from 3.06736e-005 to 3.06736e-005
Heightened Def Con from 3.06736e-005 to 3.06736e-005
Heightened Def Con from 3.06736e-005 to 3.06736e-005
Heightened Def Con from 3.06736e-005 to 3.06736e-005
Heightened Def Con from 3.06737e-005 to 3.06737e-005
Heightened Def Con from 3.06737e-005 to 3.06737e-005
Heightened Def Con from 3.06737e-005 to 3.06737e-005
Heightened Def Con from 3.06738e-005 to 3.06738e-005
Heightened Def Con from 3.06738e-005 to 3.06739e-005
Heightened Def Con from 3.06739e-005 to 3.06739e-005
Heightened Def Con from 3.06741e-005 to 3.06741e-005
Heightened Def Con from 3.06742e-005 to 3.06747e-005
Heightened Def Con from 3.06747e-005 to 3.06787e-005
Heightened Def Con from 3.06866e-005 to 3.06916e-005
Heightened Def Con from 3.07393e-005 to 3.07423e-005
Heightened Def Con from 3.21754e-005 to 3.21774e-005
Heightened Def Con from 3.26347e-005 to 3.26367e-005
Heightened Def Con from 3.26468e-005 to 3.26548e-005
Heightened Def Con from 3.27823e-005 to 3.27853e-005
Heightened Def Con from 3.2803e-005 to 3.2803e-005
Heightened Def Con from 3.2803e-005 to 3.2803e-005
Heightened Def Con from 3.2803e-005 to 3.2803e-005
Heightened Def Con from 3.2803e-005 to 3.2803e-005
Heightened Def Con from 3.2803e-005 to 3.2803e-005
Heightened Def Con from 3.28031e-005 to 3.28031e-005
Heightened Def Con from 3.28031e-005 to 3.28031e-005
Heightened Def Con from 3.28031e-005 to 3.28031e-005
Heightened Def Con from 3.28031e-005 to 3.28031e-005
Heightened Def Con from 3.28031e-005 to 3.28031e-005
Heightened Def Con from 3.28031e-005 to 3.28031e-005
Heightened Def Con from 3.28031e-005 to 3.28031e-005
Heightened Def Con from 3.28031e-005 to 3.28031e-005
Heightened Def Con from 3.28031e-005 to 3.28031e-005
Heightened Def Con from 3.28031e-005 to 3.28031e-005
Heightened Def Con from 3.28031e-005 to 3.28031e-005
Heightened Def Con from 3.28031e-005 to 3.28031e-005
Heightened Def Con from 3.28031e-005 to 3.28031e-005
Heightened Def Con from 3.28031e-005 to 3.28031e-005
Heightened Def Con from 3.28031e-005 to 3.28031e-005
Heightened Def Con from 3.28031e-005 to 3.28031e-005
Heightened Def Con from 3.28031e-005 to 3.28031e-005
Heightened Def Con from 3.28031e-005 to 3.28031e-005
Heightened Def Con from 3.28031e-005 to 3.28031e-005
Heightened Def Con from 3.28031e-005 to 3.28031e-005
Heightened Def Con from 3.28031e-005 to 3.28031e-005
Heightened Def Con from 3.28031e-005 to 3.28031e-005
Heightened Def Con from 3.28031e-005 to 3.28031e-005
Heightened Def Con from 3.28031e-005 to 3.28031e-005
Heightened Def Con from 3.28031e-005 to 3.28031e-005
Heightened Def Con from 3.28031e-005 to 3.28031e-005
Heightened Def Con from 3.28031e-005 to 3.28031e-005
Heightened Def Con from 3.28031e-005 to 3.28031e-005
Heightened Def Con from 3.28032e-005 to 3.28032e-005
Heightened Def Con from 3.28032e-005 to 3.28032e-005
Heightened Def Con from 3.28032e-005 to 3.28032e-005
Heightened Def Con from 3.28032e-005 to 3.28032e-005
Heightened Def Con from 3.28032e-005 to 3.28032e-005
Heightened Def Con from 3.28032e-005 to 3.28032e-005
Heightened Def Con from 3.28032e-005 to 3.28032e-005
Heightened Def Con from 3.28032e-005 to 3.28032e-005
Heightened Def Con from 3.28032e-005 to 3.28032e-005
Heightened Def Con from 3.28032e-005 to 3.28032e-005
Heightened Def Con from 3.28032e-005 to 3.28032e-005
Heightened Def Con from 3.28033e-005 to 3.28033e-005
Heightened Def Con from 3.28033e-005 to 3.28033e-005
Heightened Def Con from 3.28033e-005 to 3.28033e-005
Heightened Def Con from 3.28033e-005 to 3.28033e-005
Heightened Def Con from 3.28033e-005 to 3.28033e-005
Heightened Def Con from 3.28033e-005 to 3.28033e-005
Heightened Def Con from 3.28033e-005 to 3.28033e-005
Heightened Def Con from 3.28033e-005 to 3.28033e-005
Heightened Def Con from 3.28033e-005 to 3.28033e-005
Heightened Def Con from 3.28033e-005 to 3.28033e-005
Heightened Def Con from 3.28033e-005 to 3.28033e-005
Heightened Def Con from 3.28033e-005 to 3.28033e-005
Heightened Def Con from 3.28033e-005 to 3.28033e-005
Heightened Def Con from 3.28033e-005 to 3.28034e-005
Heightened Def Con from 3.28034e-005 to 3.28034e-005
Heightened Def Con from 3.28034e-005 to 3.28034e-005
Heightened Def Con from 3.28034e-005 to 3.28034e-005
Heightened Def Con from 3.28034e-005 to 3.28034e-005
Heightened Def Con from 3.28034e-005 to 3.28034e-005
Heightened Def Con from 3.28034e-005 to 3.28034e-005
Heightened Def Con from 3.28034e-005 to 3.28034e-005
Heightened Def Con from 3.28034e-005 to 3.28034e-005
Heightened Def Con from 3.28034e-005 to 3.28034e-005
Heightened Def Con from 3.28034e-005 to 3.28034e-005
Heightened Def Con from 3.28034e-005 to 3.28034e-005
Heightened Def Con from 3.28034e-005 to 3.28034e-005
Heightened Def Con from 3.28034e-005 to 3.28034e-005
Heightened Def Con from 3.28034e-005 to 3.28034e-005
Heightened Def Con from 3.28034e-005 to 3.28034e-005
Heightened Def Con from 3.28034e-005 to 3.28034e-005
Heightened Def Con from 3.28034e-005 to 3.28034e-005
Heightened Def Con from 3.28036e-005 to 3.28036e-005
Heightened Def Con from 3.28036e-005 to 3.28036e-005
Heightened Def Con from 3.28036e-005 to 3.28036e-005
Heightened Def Con from 3.28036e-005 to 3.28036e-005
Heightened Def Con from 3.28036e-005 to 3.28036e-005
Heightened Def Con from 3.28036e-005 to 3.28036e-005
Heightened Def Con from 3.28036e-005 to 3.28036e-005
Heightened Def Con from 3.28036e-005 to 3.28036e-005
Heightened Def Con from 3.28036e-005 to 3.28036e-005
Heightened Def Con from 3.28036e-005 to 3.28036e-005
Heightened Def Con from 3.28036e-005 to 3.28036e-005
Heightened Def Con from 3.28036e-005 to 3.28036e-005
Heightened Def Con from 3.28036e-005 to 3.28036e-005
Heightened Def Con from 3.28036e-005 to 3.28036e-005
Heightened Def Con from 3.28036e-005 to 3.28036e-005
Heightened Def Con from 3.28036e-005 to 3.28036e-005
Heightened Def Con from 3.28036e-005 to 3.28037e-005
Heightened Def Con from 3.28037e-005 to 3.28048e-005
Heightened Def Con from 3.28048e-005 to 3.28098e-005
Heightened Def Con from 3.28457e-005 to 3.28517e-005
Heightened Def Con from 3.29168e-005 to 3.29198e-005
Heightened Def Con from 3.29827e-005 to 3.29857e-005
Heightened Def Con from 3.30489e-005 to 3.30519e-005
Heightened Def Con from 3.3116e-005 to 3.3119e-005
Heightened Def Con from 3.31816e-005 to 3.31846e-005
Heightened Def Con from 3.32499e-005 to 3.3251e-005
Heightened Def Con from 3.3251e-005 to 3.3254e-005
Heightened Def Con from 3.3304e-005 to 3.3306e-005
Heightened Def Con from 3.33136e-005 to 3.33136e-005
Heightened Def Con from 3.33136e-005 to 3.33146e-005
Heightened Def Con from 3.33146e-005 to 3.33146e-005
Heightened Def Con from 3.33151e-005 to 3.33157e-005
Heightened Def Con from 3.33157e-005 to 3.33158e-005
Heightened Def Con from 3.33158e-005 to 3.33158e-005
Heightened Def Con from 3.33158e-005 to 3.33158e-005
Heightened Def Con from 3.33158e-005 to 3.33159e-005
Heightened Def Con from 3.33159e-005 to 3.33159e-005
Heightened Def Con from 3.33159e-005 to 3.33159e-005
Heightened Def Con from 3.33159e-005 +to 3.3316e-005
Heightened Def Con from 3.3316e-005 to 3.33161e-005
Heightened Def Con from 3.33161e-005 to 3.33161e-005
Heightened Def Con from 3.33161e-005 to 3.33161e-005
Heightened Def Con from 3.33161e-005 to 3.33161e-005
Heightened Def Con from 3.33161e-005 to 3.33162e-005
Heightened Def Con from 3.33162e-005 to 3.33162e-005
Heightened Def Con from 3.33162e-005 +to 3.33162e-005
Heightened Def Con from 3.33162e-005 to 3.33163e-005
Heightened Def Con from 3.33164e-005 to 3.33164e-005
Heightened Def Con from 3.33164e-005 to 3.33165e-005
Heightened Def Con from 3.33166e-005 to 3.33166e-005
Heightened Def Con from 3.33166e-005 to 3.33166e-005
Heightened Def Con from 3.33166e-005 to 3.33166e-005
Heightened Def Con from 3.33166e-005 to 3.33166e-005
Heightened Def Con from 3.33166e-005 to 3.33166e-005
Heightened Def Con from 3.33166e-005 to 3.33166e-005
Heightened Def Con from 3.33166e-005 to 3.33166e-005
Heightened Def Con from 3.33166e-005 to 3.33166e-005
Heightened Def Con from 3.33166e-005 to 3.33166e-005
Heightened Def Con from 3.33167e-005 to 3.33167e-005
Heightened Def Con from 3.33168e-005 to 3.33169e-005
Heightened Def Con from 3.33169e-005 to 3.33219e-005
Heightened Def Con from 3.33287e-005 to 3.33327e-005
Heightened Def Con from 3.33697e-005 to 3.33727e-005
Heightened Def Con from 3.33728e-005 to 3.33758e-005
Heightened Def Con from 3.4996e-005 to 3.4998e-005
Heightened Def Con from 3.49993e-005 to 3.50024e-005
Heightened Def Con from 3.50024e-005 to 3.50074e-005
Heightened Def Con from 3.51558e-005 to 3.51558e-005
Heightened Def Con from 3.51558e-005 to 3.51559e-005
Heightened Def Con from 3.51562e-005 to 3.51563e-005
Heightened Def Con from 3.51565e-005 to 3.51565e-005
Heightened Def Con from 3.51566e-005 to 3.51566e-005
Heightened Def Con from 3.51566e-005 to 3.51566e-005
Heightened Def Con from 3.51566e-005 to 3.51566e-005
Heightened Def Con from 3.51566e-005 to 3.51567e-005
Heightened Def Con from 3.51567e-005 to 3.51567e-005
Heightened Def Con from 3.51567e-005 to 3.51567e-005
Heightened Def Con from 3.51568e-005 to 3.51569e-005
Heightened Def Con from 3.51569e-005 to 3.51569e-005
Heightened Def Con from 3.51571e-005 to 3.51571e-005
Heightened Def Con from 3.51573e-005 to 3.51573e-005
Heightened Def Con from 3.51575e-005 to 3.51575e-005
Heightened Def Con from 3.5158e-005 to 3.5158e-005
Heightened Def Con from 3.5158e-005 to 3.5158e-005
Heightened Def Con from 3.5158e-005 to 3.5158e-005
Heightened Def Con from 3.51582e-005 to 3.51582e-005
Heightened Def Con from 3.51583e-005 to 3.51583e-005
Heightened Def Con from 3.51584e-005 to 3.51584e-005
Heightened Def Con from 3.51584e-005 to 3.51586e-005
Heightened Def Con from 3.5159e-005 to 3.5163e-005
Heightened Def Con from 3.51633e-005 to 3.51683e-005
Heightened Def Con from 3.52028e-005 to 3.52068e-005
Heightened Def Con from 3.54755e-005 to 3.54785e-005
Heightened Def Con from 3.55415e-005 to 3.55445e-005
Heightened Def Con from 3.56091e-005 to 3.56121e-005
Heightened Def Con from 3.56616e-005 to 3.56627e-005
Heightened Def Con from 3.5663e-005 to 3.5665e-005
Heightened Def Con from 3.56727e-005 to 3.56737e-005
Heightened Def Con from 3.56737e-005 to 3.56737e-005
Heightened Def Con from 3.56737e-005 to 3.56737e-005
Heightened Def Con from 3.56737e-005 to 3.56737e-005
Heightened Def Con from 3.56737e-005 to 3.56737e-005
Heightened Def Con from 3.56737e-005 to 3.56737e-005
Heightened Def Con from 3.56738e-005 to 3.56738e-005
Heightened Def Con from 3.56738e-005 to 3.56738e-005
Heightened Def Con from 3.56738e-005 to 3.56738e-005
Heightened Def Con from 3.56738e-005 to 3.56738e-005
Heightened Def Con from 3.56738e-005 to 3.56738e-005
Heightened Def Con from 3.56738e-005 to 3.56738e-005
Heightened Def Con from 3.56738e-005 to 3.56738e-005
Heightened Def Con from 3.5674e-005 to 3.5674e-005
Heightened Def Con from 3.5674e-005 to 3.5674e-005
Heightened Def Con from 3.56741e-005 to 3.56741e-005
Heightened Def Con from 3.56741e-005 to 3.56741e-005
Heightened Def Con from 3.56741e-005 to 3.56741e-005
Heightened Def Con from 3.56741e-005 to 3.56741e-005
Heightened Def Con from 3.56741e-005 to 3.56741e-005
Heightened Def Con from 3.56741e-005 to 3.56741e-005
Heightened Def Con from 3.56742e-005 to 3.56742e-005
Heightened Def Con from 3.56742e-005 to 3.56742e-005
Heightened Def Con from 3.56742e-005 to 3.56742e-005
Heightened Def Con from 3.56743e-005 to 3.56744e-005
Heightened Def Con from 3.56745e-005 to 3.56745e-005
Heightened Def Con from 3.56745e-005 to 3.56745e-005
Heightened Def Con from 3.56745e-005 +to 3.56745e-005
Heightened Def Con from 3.56745e-005 to 3.56745e-005
Heightened Def Con from 3.56745e-005 to 3.56745e-005
Heightened Def Con from 3.56745e-005 to 3.56745e-005
Heightened Def Con from 3.56745e-005 to 3.56745e-005
Heightened Def Con from 3.56745e-005 to 3.56745e-005
Heightened Def Con from 3.56745e-005 to 3.56745e-005
Heightened Def Con from 3.56745e-005 to 3.56745e-005
Heightened Def Con from 3.56745e-005 to 3.56745e-005
Heightened Def Con from 3.56746e-005 to 3.56746e-005
Heightened Def Con from 3.56746e-005 to 3.56751e-005
Heightened Def Con from 3.56751e-005 to 3.56781e-005
Heightened Def Con from 3.56877e-005 to 3.56907e-005
Heightened Def Con from 3.57375e-005 to 3.57405e-005
Heightened Def Con from 3.7191e-005 to 3.7193e-005
Heightened Def Con from 3.76254e-005 to 3.76274e-005
Heightened Def Con from 3.76458e-005 to 3.76468e-005
Heightened Def Con from 3.76468e-005 to 3.76518e-005
Heightened Def Con from 3.76518e-005 to 3.76548e-005
Heightened Def Con from 3.77809e-005 to 3.77849e-005
Heightened Def Con from 3.78025e-005 to 3.78025e-005
Heightened Def Con from 3.78025e-005 to 3.78025e-005
Heightened Def Con from 3.78025e-005 to 3.78025e-005
Heightened Def Con from 3.78025e-005 to 3.78025e-005
Heightened Def Con from 3.78025e-005 to 3.78025e-005
Heightened Def Con from 3.78025e-005 to 3.78025e-005
Heightened Def Con from 3.78026e-005 to 3.78026e-005
Heightened Def Con from 3.78026e-005 to 3.78026e-005
Heightened Def Con from 3.78026e-005 to 3.78026e-005
Heightened Def Con from 3.78026e-005 to 3.78026e-005
Heightened Def Con from 3.78026e-005 to 3.78026e-005
Heightened Def Con from 3.78026e-005 to 3.78026e-005
Heightened Def Con from 3.78026e-005 to 3.78026e-005
Heightened Def Con from 3.78026e-005 to 3.78026e-005
Heightened Def Con from 3.78026e-005 to 3.78026e-005
Heightened Def Con from 3.78026e-005 to 3.78026e-005
Heightened Def Con from 3.78026e-005 to 3.78026e-005
Heightened Def Con from 3.78026e-005 to 3.78026e-005
Heightened Def Con from 3.78026e-005 to 3.78026e-005
Heightened Def Con from 3.78026e-005 to 3.78026e-005
Heightened Def Con from 3.78026e-005 to 3.78027e-005
Heightened Def Con from 3.78027e-005 to 3.78027e-005
Heightened Def Con from 3.78027e-005 to 3.78027e-005
Heightened Def Con from 3.78027e-005 to 3.78027e-005
Heightened Def Con from 3.78027e-005 to 3.78027e-005
Heightened Def Con from 3.78027e-005 to 3.78027e-005
Heightened Def Con from 3.78027e-005 to 3.78027e-005
Heightened Def Con from 3.78027e-005 to 3.78027e-005
Heightened Def Con from 3.78027e-005 to 3.78027e-005
Heightened Def Con from 3.78027e-005 to 3.78027e-005
Heightened Def Con from 3.78027e-005 to 3.78027e-005
Heightened Def Con from 3.78027e-005 to 3.78027e-005
Heightened Def Con from 3.78027e-005 to 3.78027e-005
Heightened Def Con from 3.78027e-005 to 3.78027e-005
Heightened Def Con from 3.78031e-005 to 3.78031e-005
Heightened Def Con from 3.78031e-005 to 3.78031e-005
Heightened Def Con from 3.78031e-005 to 3.78031e-005
Heightened Def Con from 3.78031e-005 to 3.78031e-005
Heightened Def Con from 3.78031e-005 to 3.78031e-005
Heightened Def Con from 3.78031e-005 to 3.78031e-005
Heightened Def Con from 3.78031e-005 to 3.78031e-005
Heightened Def Con from 3.78031e-005 to 3.78031e-005
Heightened Def Con from 3.78032e-005 to 3.78032e-005
Heightened Def Con from 3.78032e-005 to 3.78032e-005
Heightened Def Con from 3.78032e-005 to 3.78032e-005
Heightened Def Con from 3.78032e-005 to 3.78032e-005
Heightened Def Con from 3.78032e-005 to 3.78032e-005
Heightened Def Con from 3.78032e-005 to 3.78032e-005
Heightened Def Con from 3.78033e-005 to 3.78033e-005
Heightened Def Con from 3.78033e-005 to 3.78033e-005
Heightened Def Con from 3.78033e-005 to 3.78033e-005
Heightened Def Con from 3.78033e-005 to 3.78033e-005
Heightened Def Con from 3.78033e-005 to 3.78033e-005
Heightened Def Con from 3.78033e-005 to 3.78033e-005
Heightened Def Con from 3.78033e-005 to 3.78033e-005
Heightened Def Con from 3.78033e-005 to 3.78033e-005
Heightened Def Con from 3.78033e-005 to 3.78033e-005
Heightened Def Con from 3.78033e-005 to 3.78033e-005
Heightened Def Con from 3.78033e-005 to 3.78033e-005
Heightened Def Con from 3.78033e-005 to 3.78033e-005
Heightened Def Con from 3.78033e-005 to 3.78033e-005
Heightened Def Con from 3.78033e-005 to 3.78033e-005
Heightened Def Con from 3.78033e-005 to 3.78033e-005
Heightened Def Con from 3.78033e-005 to 3.78033e-005
Heightened Def Con from 3.78033e-005 to 3.78033e-005
Heightened Def Con from 3.78033e-005 to 3.78033e-005
Heightened Def Con from 3.78033e-005 to 3.78033e-005
Heightened Def Con from 3.78033e-005 to 3.78033e-005
Heightened Def Con from 3.78033e-005 to 3.78033e-005
Heightened Def Con from 3.78033e-005 to 3.78033e-005
Heightened Def Con from 3.78033e-005 to 3.78033e-005
Heightened Def Con from 3.78033e-005 to 3.78033e-005
Heightened Def Con from 3.78033e-005 to 3.78033e-005
Heightened Def Con from 3.78033e-005 to 3.78033e-005
Heightened Def Con from 3.78033e-005 to 3.78035e-005
Heightened Def Con from 3.78035e-005 to 3.78115e-005
Heightened Def Con from 3.78494e-005 to 3.78524e-005
Heightened Def Con from 3.79183e-005 to 3.79213e-005
Heightened Def Con from 3.7983e-005 to 3.7986e-005
Heightened Def Con from 3.81148e-005 to 3.81178e-005
Heightened Def Con from 3.8183e-005 to 3.8186e-005
Heightened Def Con from 3.82969e-005 to 3.82989e-005
Heightened Def Con from 3.83152e-005 to 3.83153e-005
Heightened Def Con from 3.83154e-005 to 3.83154e-005
Heightened Def Con from 3.83154e-005 to 3.83154e-005
Heightened Def Con from 3.83154e-005 to 3.8316e-005
Heightened Def Con from 3.83161e-005 to 3.83161e-005
Heightened Def Con from 3.83161e-005 to 3.83161e-005
Heightened Def Con from 3.83161e-005 to 3.83161e-005
Heightened Def Con from 3.83161e-005 to 3.83162e-005
Heightened Def Con from 3.83162e-005 to 3.83162e-005
Heightened Def Con from 3.83162e-005 to 3.83163e-005
Heightened Def Con from 3.83163e-005 to 3.83163e-005
Heightened Def Con from 3.83163e-005 to 3.83163e-005
Heightened Def Con from 3.83163e-005 to 3.83163e-005
Heightened Def Con from 3.83163e-005 to 3.83163e-005
Heightened Def Con from 3.83164e-005 to 3.83164e-005
Heightened Def Con from 3.83164e-005 to 3.83164e-005
Heightened Def Con from 3.83164e-005 to 3.83164e-005
Heightened Def Con from 3.83164e-005 to 3.83164e-005
Heightened Def Con from 3.83164e-005 to 3.83164e-005
Heightened Def Con from 3.83164e-005 to 3.83164e-005
Heightened Def Con from 3.83164e-005 to 3.83164e-005
Heightened Def Con from 3.83164e-005 to 3.83165e-005
Heightened Def Con from 3.83165e-005 to 3.83165e-005
Heightened Def Con from 3.83165e-005 to 3.83166e-005
Heightened Def Con from 3.83166e-005 to 3.83166e-005
Heightened Def Con from 3.83166e-005 to 3.83166e-005
Heightened Def Con from 3.83166e-005 to 3.83166e-005
Heightened Def Con from 3.83166e-005 to 3.83166e-005
Heightened Def Con from 3.83166e-005 to 3.83167e-005
Heightened Def Con from 3.83167e-005 to 3.83167e-005
Heightened Def Con from 3.83167e-005 to 3.83167e-005
Heightened Def Con from 3.83167e-005 to 3.83167e-005
Heightened Def Con from 3.83168e-005 to 3.83168e-005
Heightened Def Con from 3.83168e-005 to 3.83168e-005
Heightened Def Con from 3.83168e-005 to 3.83168e-005
Heightened Def Con from 3.83168e-005 to 3.83168e-005
Heightened Def Con from 3.83168e-005 to 3.83168e-005
Heightened Def Con from 3.83168e-005 to 3.83168e-005
Heightened Def Con from 3.83169e-005 to 3.83169e-005
Heightened Def Con from 3.83169e-005 to 3.8317e-005
Heightened Def Con from 3.8317e-005 to 3.8322e-005
Heightened Def Con from 3.8322e-005 to 3.8325e-005
Heightened Def Con from 3.8328e-005 to 3.8328e-005
Heightened Def Con from 3.8328e-005 to 3.8331e-005
Heightened Def Con from 3.83311e-005 to 3.83341e-005
Heightened Def Con from 3.83825e-005 to 3.83855e-005
Heightened Def Con from 3.83855e-005 to 3.83885e-005
Heightened Def Con from 4.00003e-005 to 4.00083e-005
Heightened Def Con from 4.00696e-005 to 4.00726e-005
Heightened Def Con from 4.01367e-005 to 4.01397e-005
Heightened Def Con from 4.01574e-005 to 4.01576e-005
Heightened Def Con from 4.01579e-005 to 4.01589e-005
Heightened Def Con from 4.01589e-005 to 4.01589e-005
Heightened Def Con from 4.0159e-005 to 4.0159e-005
Heightened Def Con from 4.0159e-005 to 4.0159e-005
Heightened Def Con from 4.0159e-005 to 4.01591e-005
Heightened Def Con from 4.01592e-005 to 4.01592e-005
Heightened Def Con from 4.01592e-005 to 4.01592e-005
Heightened Def Con from 4.01592e-005 to 4.01592e-005
Heightened Def Con from 4.01593e-005 to 4.01593e-005
Heightened Def Con from 4.01594e-005 to 4.01594e-005
Heightened Def Con from 4.01594e-005 to 4.01595e-005
Heightened Def Con from 4.01595e-005 to 4.01595e-005
Heightened Def Con from 4.01595e-005 to 4.01595e-005
Heightened Def Con from 4.01595e-005 to 4.01595e-005
Heightened Def Con from 4.01595e-005 to 4.016e-005
Heightened Def Con from 4.01601e-005 to 4.01701e-005
Heightened Def Con from 4.02039e-005 to 4.02079e-005
Heightened Def Con from 4.02695e-005 to 4.02735e-005
Heightened Def Con from 4.03372e-005 to 4.03402e-005
Heightened Def Con from 4.04707e-005 to 4.04718e-005
Heightened Def Con from 4.0667e-005 to 4.0669e-005
Heightened Def Con from 4.06701e-005 to 4.06711e-005
Heightened Def Con from 4.06711e-005 to 4.06711e-005
Heightened Def Con from 4.06711e-005 to 4.06711e-005
Heightened Def Con from 4.06711e-005 to 4.06711e-005
Heightened Def Con from 4.06711e-005 to 4.06711e-005
Heightened Def Con from 4.06712e-005 to 4.06712e-005
Heightened Def Con from 4.06712e-005 to 4.06712e-005
Heightened Def Con from 4.06712e-005 to 4.06712e-005
Heightened Def Con from 4.06712e-005 to 4.06712e-005
Heightened Def Con from 4.06712e-005 +to 4.06712e-005
Heightened Def Con from 4.06712e-005 to 4.06712e-005
Heightened Def Con from 4.06712e-005 to 4.06712e-005
Heightened Def Con from 4.06712e-005 +to 4.06712e-005
Heightened Def Con from 4.06712e-005 to 4.06712e-005
Heightened Def Con from 4.06712e-005 to 4.06712e-005
Heightened Def Con from 4.06712e-005 to 4.06712e-005
Heightened Def Con from 4.06712e-005 to 4.06712e-005
Heightened Def Con from 4.06712e-005 to 4.06712e-005
Heightened Def Con from 4.06712e-005 to 4.06712e-005
Heightened Def Con from 4.06713e-005 ++to 4.06713e-005
Heightened Def Con from 4.06714e-005 to 4.06714e-005
Heightened Def Con from 4.06714e-005 to 4.06714e-005
Heightened Def Con from 4.06714e-005 to 4.06714e-005
Heightened Def Con from 4.06714e-005 to 4.06714e-005
Heightened Def Con from 4.06714e-005 to 4.06714e-005
Heightened Def Con from 4.06714e-005 to 4.06714e-005
Heightened Def Con from 4.06714e-005 to 4.06714e-005
Heightened Def Con from 4.06714e-005 to 4.06714e-005
Heightened Def Con from 4.06714e-005 to 4.06714e-005
Heightened Def Con from 4.06714e-005 to 4.06714e-005
Heightened Def Con from 4.06714e-005 to 4.06714e-005
Heightened Def Con from 4.06714e-005 to 4.06714e-005
Heightened Def Con from 4.06714e-005 to 4.06714e-005
Heightened Def Con from 4.06714e-005 to 4.06714e-005
Heightened Def Con from 4.06714e-005 to 4.06714e-005
Heightened Def Con from 4.06714e-005 to 4.06714e-005
Heightened Def Con from 4.06714e-005 to 4.06715e-005
Heightened Def Con from 4.06715e-005 to 4.06715e-005
Heightened Def Con from 4.06715e-005 to 4.06715e-005
Heightened Def Con from 4.06715e-005 to 4.06715e-005
Heightened Def Con from 4.06715e-005 to 4.06715e-005
Heightened Def Con from 4.06715e-005 to 4.06715e-005
Heightened Def Con from 4.06715e-005 to 4.06715e-005
Heightened Def Con from 4.06715e-005 to 4.06715e-005
Heightened Def Con from 4.06715e-005 to 4.06715e-005
Heightened Def Con from 4.06715e-005 to 4.06715e-005
Heightened Def Con from 4.06715e-005 to 4.06715e-005
Heightened Def Con from 4.06715e-005 to 4.06715e-005
Heightened Def Con from 4.06715e-005 to 4.06715e-005
Heightened Def Con from 4.06715e-005 +to 4.06715e-005
Heightened Def Con from 4.06715e-005 to 4.06715e-005
Heightened Def Con from 4.06715e-005 to 4.06715e-005
Heightened Def Con from 4.06715e-005 to 4.06715e-005
Heightened Def Con from 4.06715e-005 to 4.0672e-005
Heightened Def Con from 4.0672e-005 to 4.0675e-005
Heightened Def Con from 4.06845e-005 to 4.06875e-005
Heightened Def Con from 4.07243e-005 to 4.07273e-005
Heightened Def Con from 4.2553e-005 to 4.2555e-005
Heightened Def Con from 4.26428e-005 to 4.26448e-005
Heightened Def Con from 4.26448e-005 to 4.26548e-005
Heightened Def Con from 4.27808e-005 to 4.27828e-005
Heightened Def Con from 4.27828e-005 to 4.27858e-005
Heightened Def Con from 4.2804e-005 to 4.2804e-005
Heightened Def Con from 4.2804e-005 to 4.2804e-005
Heightened Def Con from 4.2804e-005 to 4.2804e-005
Heightened Def Con from 4.2804e-005 to 4.2804e-005
Heightened Def Con from 4.2804e-005 to 4.2804e-005
Heightened Def Con from 4.2804e-005 to 4.2804e-005
Heightened Def Con from 4.2804e-005 to 4.2804e-005
Heightened Def Con from 4.2804e-005 to 4.2804e-005
Heightened Def Con from 4.2804e-005 to 4.2804e-005
Heightened Def Con from 4.2804e-005 to 4.2804e-005
Heightened Def Con from 4.2804e-005 to 4.2804e-005
Heightened Def Con from 4.2804e-005 to 4.2804e-005
Heightened Def Con from 4.2804e-005 to 4.2804e-005
Heightened Def Con from 4.2804e-005 to 4.2804e-005
Heightened Def Con from 4.2804e-005 to 4.28041e-005
Heightened Def Con from 4.28041e-005 to 4.28041e-005
Heightened Def Con from 4.28041e-005 to 4.28041e-005
Heightened Def Con from 4.28041e-005 to 4.28041e-005
Heightened Def Con from 4.28041e-005 to 4.28041e-005
Heightened Def Con from 4.28041e-005 to 4.28041e-005
Heightened Def Con from 4.28041e-005 to 4.28041e-005
Heightened Def Con from 4.28041e-005 to 4.28041e-005
Heightened Def Con from 4.28041e-005 to 4.28041e-005
Heightened Def Con from 4.28041e-005 to 4.28041e-005
Heightened Def Con from 4.28041e-005 to 4.28041e-005
Heightened Def Con from 4.28041e-005 to 4.28041e-005
Heightened Def Con from 4.28041e-005 to 4.28041e-005
Heightened Def Con from 4.28041e-005 to 4.28041e-005
Heightened Def Con from 4.28041e-005 to 4.28041e-005
Heightened Def Con from 4.28041e-005 to 4.28041e-005
Heightened Def Con from 4.28041e-005 to 4.28041e-005
Heightened Def Con from 4.28041e-005 to 4.28041e-005
Heightened Def Con from 4.28041e-005 to 4.28041e-005
Heightened Def Con from 4.28041e-005 to 4.28041e-005
Heightened Def Con from 4.28041e-005 to 4.28041e-005
Heightened Def Con from 4.28041e-005 to 4.28041e-005
Heightened Def Con from 4.28041e-005 to 4.28041e-005
Heightened Def Con from 4.28041e-005 to 4.28041e-005
Heightened Def Con from 4.28041e-005 to 4.28041e-005
Heightened Def Con from 4.28041e-005 to 4.28041e-005
Heightened Def Con from 4.28041e-005 to 4.28041e-005
Heightened Def Con from 4.28041e-005 to 4.28041e-005
Heightened Def Con from 4.28041e-005 to 4.28041e-005
Heightened Def Con from 4.28042e-005 to 4.28042e-005
Heightened Def Con from 4.28042e-005 to 4.28042e-005
Heightened Def Con from 4.28042e-005 to 4.28042e-005
Heightened Def Con from 4.28042e-005 to 4.28042e-005
Heightened Def Con from 4.28042e-005 to 4.28042e-005
Heightened Def Con from 4.28042e-005 to 4.28042e-005
Heightened Def Con from 4.28042e-005 to 4.28044e-005
Heightened Def Con from 4.28044e-005 to 4.28124e-005
Heightened Def Con from 4.28478e-005 to 4.28519e-005
Heightened Def Con from 4.2917e-005 to 4.292e-005
Heightened Def Con from 4.29868e-005 to 4.29898e-005
Heightened Def Con from 4.30515e-005 to 4.30545e-005
Heightened Def Con from 4.31192e-005 to 4.31222e-005
Heightened Def Con from 4.31853e-005 to 4.31883e-005
Heightened Def Con from 4.32516e-005 to 4.32546e-005
Heightened Def Con from 4.33033e-005 to 4.33053e-005
Heightened Def Con from 4.33139e-005 to 4.33159e-005
Heightened Def Con from 4.3317e-005 to 4.33181e-005
Heightened Def Con from 4.33185e-005 to 4.33187e-005
Heightened Def Con from 4.33187e-005 to 4.33189e-005
Heightened Def Con from 4.33189e-005 to 4.33189e-005
Heightened Def Con from 4.3319e-005 to 4.3319e-005
Heightened Def Con from 4.3319e-005 to 4.33191e-005
Heightened Def Con from 4.33192e-005 to 4.33192e-005
Heightened Def Con from 4.33192e-005 to 4.33192e-005
Heightened Def Con from 4.33192e-005 to 4.33192e-005
Heightened Def Con from 4.33192e-005 to 4.33192e-005
Heightened Def Con from 4.33192e-005 to 4.33192e-005
Heightened Def Con from 4.33193e-005 to 4.33193e-005
Heightened Def Con from 4.33194e-005 to 4.33194e-005
Heightened Def Con from 4.33194e-005 to 4.33194e-005
Heightened Def Con from 4.33194e-005 to 4.33194e-005
Heightened Def Con from 4.33194e-005 to 4.33194e-005
Heightened Def Con from 4.33194e-005 to 4.33194e-005
Heightened Def Con from 4.33194e-005 to 4.33195e-005
Heightened Def Con from 4.33195e-005 to 4.33195e-005
Heightened Def Con from 4.33195e-005 to 4.33195e-005
Heightened Def Con from 4.33195e-005 to 4.33195e-005
Heightened Def Con from 4.33195e-005 to 4.33195e-005
Heightened Def Con from 4.33195e-005 to 4.33195e-005
Heightened Def Con from 4.33195e-005 to 4.33196e-005
Heightened Def Con from 4.33196e-005 to 4.33196e-005
Heightened Def Con from 4.33196e-005 to 4.33196e-005
Heightened Def Con from 4.33196e-005 to 4.33196e-005
Heightened Def Con from 4.33196e-005 to 4.33196e-005
Heightened Def Con from 4.33196e-005 to 4.33197e-005
Heightened Def Con from 4.33197e-005 to 4.33197e-005
Heightened Def Con from 4.33197e-005 to 4.33197e-005
Heightened Def Con from 4.33197e-005 to 4.33197e-005
Heightened Def Con from 4.33198e-005 to 4.33198e-005
Heightened Def Con from 4.33198e-005 to 4.33198e-005
Heightened Def Con from 4.33198e-005 to 4.33199e-005
Heightened Def Con from 4.33199e-005 to 4.33199e-005
Heightened Def Con from 4.33199e-005 to 4.33199e-005
Heightened Def Con from 4.33199e-005 to 4.33199e-005
Heightened Def Con from 4.33199e-005 to 4.33199e-005
Heightened Def Con from 4.33199e-005 to 4.332e-005
Heightened Def Con from 4.33201e-005 to 4.33201e-005
Heightened Def Con from 4.33203e-005 to 4.33203e-005
[...]
Heightened Def Con from 0.000988315 to 0.000988316
Heightened Def Con from 0.000988316 to 0.000988316
Heightened Def Con from 0.000988316 to 0.000988317
Heightened Def Con from 0.000988317 to 0.000988317
Heightened Def Con from 0.000988317 to 0.000988317
Heightened Def Con from 0.000988317 to 0.000988317
Heightened Def Con from 0.000988317 to 0.000988322
Heightened Def Con from 0.000988367 to 0.00098837
Heightened Def Con from 0.000988375 to 0.000988378
Heightened Def Con from 0.000989948 to 0.00098995
Heightened Def Con from 0.00099 to 0.000990004
Heightened Def Con from 0.000990004 to 0.000990007
Heightened Def Con from 0.000990068 to 0.000990071
Heightened Def Con from 0.000990134 to 0.000990137
Heightened Def Con from 0.000990149 to 0.000990152
Heightened Def Con from 0.000990153 to 0.000990153
Heightened Def Con from 0.000990153 to 0.000990153
Heightened Def Con from 0.000990153 to 0.000990153
Heightened Def Con from 0.000990154 to 0.000990154
Heightened Def Con from 0.000990154 to 0.000990154
Heightened Def Con from 0.000990154 to 0.000990154
Heightened Def Con from 0.000990154 to 0.000990154
Heightened Def Con from 0.000990155 to 0.000990155
Heightened Def Con from 0.000990155 to 0.000990155
Heightened Def Con from 0.000990155 to 0.000990155
Heightened Def Con from 0.000990155 to 0.000990155
Heightened Def Con from 0.000990155 to 0.000990165
Heightened Def Con from 0.000990201 to 0.000990204
Heightened Def Con from 0.000990659 to 0.000990661
Heightened Def Con from 0.000990668 to 0.00099067
Heightened Def Con from 0.000990672 to 0.000990672
Heightened Def Con from 0.000990672 to 0.000990672
Heightened Def Con from 0.000990672 to 0.000990672
Heightened Def Con from 0.000990672 to 0.000990672
Heightened Def Con from 0.000990672 to 0.000990672
Heightened Def Con from 0.000990672 to 0.000990672
Heightened Def Con from 0.000990672 to 0.000990672
Heightened Def Con from 0.000990673 to 0.000990677
Heightened Def Con from 0.000990685 to 0.000990689
Heightened Def Con from 0.000990739 to 0.000990742
Heightened Def Con from 0.000992573 to 0.000992575
Heightened Def Con from 0.000992645 to 0.000992647
Heightened Def Con from 0.000992647 to 0.000992655
Heightened Def Con from 0.000992783 to 0.000992786
Heightened Def Con from 0.000992803 to 0.000992803
Heightened Def Con from 0.000992803 to 0.000992803
Heightened Def Con from 0.000992803 to 0.000992803
Heightened Def Con from 0.000992803 to 0.000992803
Heightened Def Con from 0.000992803 to 0.000992803
Heightened Def Con from 0.000992803 to 0.000992803
Heightened Def Con from 0.000992803 to 0.000992803
Heightened Def Con from 0.000992803 to 0.000992803
Heightened Def Con from 0.000992803 to 0.000992803
Heightened Def Con from 0.000992803 to 0.000992803
Heightened Def Con from 0.000992803 to 0.000992803
Heightened Def Con from 0.000992803 to 0.000992803
Heightened Def Con from 0.000992803 to 0.000992803
Heightened Def Con from 0.000992803 to 0.000992803
Heightened Def Con from 0.000992803 to 0.000992803
Heightened Def Con from 0.000992803 to 0.000992803
Heightened Def Con from 0.000992803 to 0.000992803
Heightened Def Con from 0.000992803 to 0.000992803
Heightened Def Con from 0.000992803 to 0.000992803
Heightened Def Con from 0.000992803 to 0.000992803
Heightened Def Con from 0.000992803 to 0.000992803
Heightened Def Con from 0.000992803 to 0.000992803
Heightened Def Con from 0.000992803 to 0.000992803
Heightened Def Con from 0.000992803 to 0.000992803
Heightened Def Con from 0.000992803 to 0.000992803
Heightened Def Con from 0.000992803 to 0.000992803
Heightened Def Con from 0.000992803 to 0.000992803
Heightened Def Con from 0.000992803 to 0.000992803
Heightened Def Con from 0.000992803 to 0.000992803
Heightened Def Con from 0.000992803 to 0.000992803
Heightened Def Con from 0.000992803 to 0.000992803
Heightened Def Con from 0.000992803 to 0.000992803
Heightened Def Con from 0.000992803 to 0.000992803
Heightened Def Con from 0.000992803 to 0.000992803
Heightened Def Con from 0.000992803 to 0.000992803
Heightened Def Con from 0.000992803 to 0.000992803
Heightened Def Con from 0.000992803 to 0.000992803
Heightened Def Con from 0.000992803 to 0.000992803
Heightened Def Con from 0.000992803 to 0.000992804
Heightened Def Con from 0.000992804 to 0.000992804
Heightened Def Con from 0.000992804 to 0.000992804
Heightened Def Con from 0.000992804 to 0.000992804
Heightened Def Con from 0.000992804 to 0.000992804
Heightened Def Con from 0.000992804 to 0.000992804
Heightened Def Con from 0.000992804 to 0.000992804
Heightened Def Con from 0.000992804 to 0.000992804
Heightened Def Con from 0.000992804 to 0.000992804
Heightened Def Con from 0.000992804 to 0.000992804
Heightened Def Con from 0.000992804 to 0.000992804
Heightened Def Con from 0.000992804 to 0.000992804
Heightened Def Con from 0.000992804 to 0.000992804
Heightened Def Con from 0.000992804 to 0.000992804
Heightened Def Con from 0.000992804 to 0.000992804
Heightened Def Con from 0.000992804 to 0.000992804
Heightened Def Con from 0.000992804 to 0.000992804
Heightened Def Con from 0.000992804 to 0.000992804
Heightened Def Con from 0.000992804 to 0.000992804
Heightened Def Con from 0.000992804 to 0.000992804
Heightened Def Con from 0.000992804 to 0.000992804
Heightened Def Con from 0.000992804 to 0.000992804
Heightened Def Con from 0.000992804 to 0.000992804
Heightened Def Con from 0.000992804 to 0.000992804
Heightened Def Con from 0.000992804 to 0.000992804
Heightened Def Con from 0.000992804 to 0.000992804
Heightened Def Con from 0.000992804 to 0.000992804
Heightened Def Con from 0.000992804 to 0.000992804
Heightened Def Con from 0.000992804 to 0.000992804
Heightened Def Con from 0.000992804 to 0.000992804
Heightened Def Con from 0.000992804 to 0.000992804
Heightened Def Con from 0.000992804 to 0.000992804
Heightened Def Con from 0.000992804 to 0.000992804
Heightened Def Con from 0.000992804 to 0.000992804
Heightened Def Con from 0.000992804 to 0.000992804
Heightened Def Con from 0.000992804 to 0.000992804
Heightened Def Con from 0.000992804 to 0.000992804
Heightened Def Con from 0.000992804 +to 0.000992804
Heightened Def Con from 0.000992804 to 0.000992804
Heightened Def Con from 0.000992804 to 0.000992804
Heightened Def Con from 0.000992804 to 0.000992804
Heightened Def Con from 0.000992804 to 0.000992804
Heightened Def Con from 0.000992804 to 0.000992804
Heightened Def Con from 0.000992804 to 0.000992804
Heightened Def Con from 0.000992804 to 0.000992804
Heightened Def Con from 0.000992804 to 0.000992804
Heightened Def Con from 0.000992804 to 0.000992804
Heightened Def Con from 0.000992804 to 0.000992804
Heightened Def Con from 0.000992804 to 0.000992804
Heightened Def Con from 0.000992804 to 0.000992804
Heightened Def Con from 0.000992804 to 0.000992804
Heightened Def Con from 0.000992804 to 0.000992804
Heightened Def Con from 0.000992804 to 0.000992804
Heightened Def Con from 0.000992804 to 0.000992804
Heightened Def Con from 0.000992804 to 0.000992804
Heightened Def Con from 0.000992804 +to 0.000992804
Heightened Def Con from 0.000992804 to 0.000992804
Heightened Def Con from 0.000992804 to 0.000992804
Heightened Def Con from 0.000992804 to 0.000992804
Heightened Def Con from 0.000992804 to 0.000992804
Heightened Def Con from 0.000992804 to 0.000992804
Heightened Def Con from 0.000992804 to 0.000992804
Heightened Def Con from 0.000992804 to 0.000992804
Heightened Def Con from 0.000992804 to 0.000992804
Heightened Def Con from 0.000992804 to 0.000992804
Heightened Def Con from 0.000992804 to 0.000992804
Heightened Def Con from 0.000992804 to 0.000992812
Heightened Def Con from 0.000992849 to 0.000992852
Heightened Def Con from 0.000992917 to 0.00099292
Heightened Def Con from 0.000992984 to 0.000992987
Heightened Def Con from 0.000993049 to 0.000993052
Heightened Def Con from 0.000993117 to 0.00099312
Heightened Def Con from 0.000993186 to 0.000993189
Heightened Def Con from 0.000993302 to 0.000993304
Heightened Def Con from 0.000993312 to 0.000993314
Heightened Def Con from 0.000993315 to 0.000993315
Heightened Def Con from 0.000993315 to 0.000993315
Heightened Def Con from 0.000993315 to 0.000993315
Heightened Def Con from 0.000993315 to 0.000993315
Heightened Def Con from 0.000993315 to 0.000993315
Heightened Def Con from 0.000993315 to 0.000993316
Heightened Def Con from 0.000993316 to 0.000993316
Heightened Def Con from 0.000993316 to 0.000993316
Heightened Def Con from 0.000993316 to 0.000993316
Heightened Def Con from 0.000993316 to 0.000993316
Heightened Def Con from 0.000993316 to 0.000993316
Heightened Def Con from 0.000993316 to 0.000993316
Heightened Def Con from 0.000993316 to 0.000993316
Heightened Def Con from 0.000993316 to 0.000993316
Heightened Def Con from 0.000993316 to 0.000993316
Heightened Def Con from 0.000993316 to 0.000993316
Heightened Def Con from 0.000993316 to 0.000993316
Heightened Def Con from 0.000993316 to 0.000993316
Heightened Def Con from 0.000993316 to 0.000993316
Heightened Def Con from 0.000993316 to 0.000993316
Heightened Def Con from 0.000993316 to 0.000993316
Heightened Def Con from 0.000993316 to 0.000993316
Heightened Def Con from 0.000993316 to 0.000993316
Heightened Def Con from 0.000993316 to 0.000993316
Heightened Def Con from 0.000993316 to 0.000993316
Heightened Def Con from 0.000993316 to 0.000993316
Heightened Def Con from 0.000993316 to 0.000993316
Heightened Def Con from 0.000993316 to 0.000993316
Heightened Def Con from 0.000993316 to 0.000993316
Heightened Def Con from 0.000993316 to 0.000993317
Heightened Def Con from 0.000993317 to 0.000993317
Heightened Def Con from 0.000993317 to 0.000993317
Heightened Def Con from 0.000993317 to 0.000993317
Heightened Def Con from 0.000993317 to 0.000993317
Heightened Def Con from 0.000993317 to 0.000993317
Heightened Def Con from 0.000993317 to 0.000993317
Heightened Def Con from 0.000993317 to 0.000993317
Heightened Def Con from 0.000993317 to 0.000993317
Heightened Def Con from 0.000993317 to 0.000993317
Heightened Def Con from 0.000993317 to 0.000993317
Heightened Def Con from 0.000993317 to 0.000993317
Heightened Def Con from 0.000993317 to 0.000993317
Heightened Def Con from 0.000993317 to 0.000993317
Heightened Def Con from 0.000993317 to 0.000993317
Heightened Def Con from 0.000993317 to 0.000993317
Heightened Def Con from 0.000993317 to 0.000993321
Heightened Def Con from 0.000994996 to 0.000994998
Heightened Def Con from 0.000994998 to 0.000995005
Heightened Def Con from 0.000995005 to 0.000995008
Heightened Def Con from 0.000995068 to 0.000995069
Heightened Def Con from 0.000995069 to 0.000995072
Heightened Def Con from 0.000995136 to 0.000995139
Heightened Def Con from 0.000995157 to 0.000995157
Heightened Def Con from 0.000995158 to 0.000995158
Heightened Def Con from 0.000995158 to 0.000995158
Heightened Def Con from 0.000995158 to 0.000995158
Heightened Def Con from 0.000995159 to 0.000995159
Heightened Def Con from 0.000995159 to 0.000995159
Heightened Def Con from 0.00099516 to 0.00099516
Heightened Def Con from 0.00099516 to 0.00099516
Heightened Def Con from 0.00099516 to 0.00099516
Heightened Def Con from 0.00099516 to 0.00099516
Heightened Def Con from 0.00099516 to 0.00099516
Heightened Def Con from 0.00099516 to 0.00099516
Heightened Def Con from 0.00099516 to 0.00099517
Heightened Def Con from 0.000995204 to 0.000995207
Heightened Def Con from 0.000995209 to 0.000995212
Heightened Def Con from 0.000995271 to 0.000995274
Heightened Def Con from 0.000995338 to 0.000995341
Heightened Def Con from 0.000995659 to 0.000995661
Heightened Def Con from 0.000995671 to 0.000995671
Heightened Def Con from 0.000995671 to 0.000995671
Heightened Def Con from 0.000995671 to 0.000995671
Heightened Def Con from 0.000995671 to 0.000995671
Heightened Def Con from 0.000995671 to 0.000995671
Heightened Def Con from 0.000995671 to 0.000995672
Heightened Def Con from 0.000995672 to 0.000995676
Heightened Def Con from 0.000995676 to 0.000995679
Heightened Def Con from 0.000995684 to 0.000995688
Heightened Def Con from 0.000995688 to 0.000995691
Heightened Def Con from 0.000995739 to 0.000995742
Heightened Def Con from 0.000997638 to 0.00099764
Heightened Def Con from 0.000997642 to 0.000997644
Heightened Def Con from 0.000997645 to 0.000997655
Heightened Def Con from 0.000997718 to 0.000997721
Heightened Def Con from 0.000997783 to 0.000997786
Heightened Def Con from 0.000997804 to 0.000997804
Heightened Def Con from 0.000997804 to 0.000997804
Heightened Def Con from 0.000997804 to 0.000997804
Heightened Def Con from 0.000997804 to 0.000997804
Heightened Def Con from 0.000997804 ++to 0.000997804
Heightened Def Con from 0.000997804 to 0.000997804
Heightened Def Con from 0.000997804 to 0.000997804
Heightened Def Con from 0.000997804 to 0.000997804
Heightened Def Con from 0.000997804 to 0.000997804
Heightened Def Con from 0.000997804 to 0.000997804
Heightened Def Con from 0.000997804 to 0.000997804
Heightened Def Con from 0.000997804 to 0.000997804
Heightened Def Con from 0.000997804 to 0.000997804
Heightened Def Con from 0.000997804 to 0.000997804
Heightened Def Con from 0.000997804 to 0.000997804
Heightened Def Con from 0.000997804 to 0.000997804
Heightened Def Con from 0.000997804 to 0.000997804
Heightened Def Con from 0.000997804 to 0.000997804
Heightened Def Con from 0.000997804 to 0.000997804
Heightened Def Con from 0.000997804 to 0.000997804
Heightened Def Con from 0.000997804 to 0.000997804
Heightened Def Con from 0.000997804 to 0.000997804
Heightened Def Con from 0.000997804 to 0.000997804
Heightened Def Con from 0.000997804 to 0.000997804
Heightened Def Con from 0.000997804 to 0.000997804
Heightened Def Con from 0.000997804 to 0.000997804
Heightened Def Con from 0.000997804 to 0.000997804
Heightened Def Con from 0.000997804 to 0.000997804
Heightened Def Con from 0.000997804 to 0.000997804
Heightened Def Con from 0.000997804 to 0.000997804
Heightened Def Con from 0.000997804 to 0.000997804
Heightened Def Con from 0.000997804 to 0.000997804
Heightened Def Con from 0.000997804 to 0.000997804
Heightened Def Con from 0.000997804 to 0.000997804
Heightened Def Con from 0.000997804 to 0.000997804
Heightened Def Con from 0.000997804 to 0.000997804
Heightened Def Con from 0.000997804 to 0.000997804
Heightened Def Con from 0.000997804 to 0.000997804
Heightened Def Con from 0.000997804 to 0.000997804
Heightened Def Con from 0.000997804 to 0.000997804
Heightened Def Con from 0.000997804 to 0.000997804
Heightened Def Con from 0.000997804 to 0.000997804
Heightened Def Con from 0.000997804 to 0.000997804
Heightened Def Con from 0.000997804 to 0.000997804
Heightened Def Con from 0.000997804 to 0.000997804
Heightened Def Con from 0.000997804 to 0.000997804
Heightened Def Con from 0.000997804 to 0.000997804
Heightened Def Con from 0.000997804 to 0.000997804
Heightened Def Con from 0.000997804 to 0.000997804
Heightened Def Con from 0.000997804 to 0.000997804
Heightened Def Con from 0.000997804 to 0.000997804
Heightened Def Con from 0.000997804 to 0.000997804
Heightened Def Con from 0.000997804 to 0.000997804
Heightened Def Con from 0.000997804 to 0.000997804
Heightened Def Con from 0.000997804 to 0.000997804
Heightened Def Con from 0.000997804 to 0.000997804
Heightened Def Con from 0.000997804 to 0.000997804
Heightened Def Con from 0.000997804 to 0.000997804
Heightened Def Con from 0.000997804 to 0.000997804
Heightened Def Con from 0.000997804 to 0.000997804
Heightened Def Con from 0.000997804 to 0.000997804
Heightened Def Con from 0.000997804 to 0.000997804
Heightened Def Con from 0.000997804 to 0.000997804
Heightened Def Con from 0.000997804 to 0.000997804
Heightened Def Con from 0.000997804 to 0.000997804
Heightened Def Con from 0.000997804 to 0.000997804
Heightened Def Con from 0.000997804 to 0.000997804
Heightened Def Con from 0.000997804 to 0.000997804
Heightened Def Con from 0.000997804 to 0.000997804
Heightened Def Con from 0.000997804 to 0.000997804
Heightened Def Con from 0.000997804 to 0.000997804
Heightened Def Con from 0.000997804 to 0.000997804
Heightened Def Con from 0.000997804 to 0.000997804
Heightened Def Con from 0.000997804 to 0.000997804
Heightened Def Con from 0.000997804 to 0.000997804
Heightened Def Con from 0.000997804 to 0.000997804
Heightened Def Con from 0.000997804 to 0.000997804
Heightened Def Con from 0.000997804 to 0.000997804
Heightened Def Con from 0.000997804 to 0.000997804
Heightened Def Con from 0.000997804 to 0.000997804
Heightened Def Con from 0.000997804 to 0.000997804
Heightened Def Con from 0.000997804 to 0.000997804
Heightened Def Con from 0.000997804 to 0.000997804
Heightened Def Con from 0.000997804 to 0.000997804
Heightened Def Con from 0.000997804 to 0.000997804
Heightened Def Con from 0.000997804 to 0.000997804
Heightened Def Con from 0.000997804 to 0.000997804
Heightened Def Con from 0.000997804 to 0.000997804
Heightened Def Con from 0.000997804 to 0.000997804
Heightened Def Con from 0.000997804 to 0.000997804
Heightened Def Con from 0.000997804 to 0.000997804
Heightened Def Con from 0.000997804 to 0.000997804
Heightened Def Con from 0.000997804 to 0.000997804
Heightened Def Con from 0.000997804 to 0.000997804
Heightened Def Con from 0.000997804 to 0.000997804
Heightened Def Con from 0.000997804 to 0.000997804
Heightened Def Con from 0.000997804 to 0.000997804
Heightened Def Con from 0.000997804 to 0.000997804
Heightened Def Con from 0.000997804 to 0.000997804
Heightened Def Con from 0.000997804 to 0.000997804
Heightened Def Con from 0.000997804 to 0.000997804
Heightened Def Con from 0.000997804 to 0.000997804
Heightened Def Con from 0.000997804 to 0.000997804
Heightened Def Con from 0.000997804 to 0.000997811
Heightened Def Con from 0.000997848 to 0.000997853
Heightened Def Con from 0.000997986 to 0.000997989
Heightened Def Con from 0.000998052 to 0.000998055
Heightened Def Con from 0.00099812 to 0.000998123
Heightened Def Con from 0.00099825 to 0.000998252
Heightened Def Con from 0.000998252 to 0.000998255
Heightened Def Con from 0.000998304 to 0.000998306
Heightened Def Con from 0.000998313 to 0.000998315
Heightened Def Con from 0.000998318 to 0.000998318
Heightened Def Con from 0.000998319 to 0.000998319
Heightened Def Con from 0.000998319 to 0.000998319
Heightened Def Con from 0.000998319 to 0.000998319
Heightened Def Con from 0.000998319 to 0.000998319
Heightened Def Con from 0.000998319 to 0.000998319
Heightened Def Con from 0.000998319 to 0.000998319
Heightened Def Con from 0.000998319 to 0.000998319
Heightened Def Con from 0.000998319 to 0.000998319
Heightened Def Con from 0.000998319 to 0.000998319
Heightened Def Con from 0.000998319 to 0.00099832
Heightened Def Con from 0.00099832 to 0.00099832
Heightened Def Con from 0.00099832 to 0.00099832
Heightened Def Con from 0.00099832 to 0.00099832
Heightened Def Con from 0.00099832 to 0.00099832
Heightened Def Con from 0.00099832 to 0.00099832
Heightened Def Con from 0.00099832 to 0.00099832
Heightened Def Con from 0.00099832 to 0.00099832
Heightened Def Con from 0.00099832 to 0.00099832
Heightened Def Con from 0.00099832 to 0.00099832
Heightened Def Con from 0.00099832 to 0.00099832
Heightened Def Con from 0.00099832 to 0.00099832
Heightened Def Con from 0.00099832 to 0.00099832
Heightened Def Con from 0.00099832 to 0.00099832
Heightened Def Con from 0.00099832 to 0.000998321
Heightened Def Con from 0.000998321 to 0.000998326
Heightened Def Con from 0.000998367 to 0.000998371
Heightened Def Con from 0.000998372 to 0.000998375
Heightened Def Con from 0.000999997 to 0.000999999


Measurement "vo" FAIL'ed

Measurement "il" FAIL'ed


Date: Fri Nov 08 19:48:55 2024
Total elapsed time: 1055.351 seconds.

tnom = 27
temp = 27
method = modified trap
totiter = 9828780
traniter = 9828780
tranpoints = 1347830
accept = 730509
rejected = 654342
matrix size = 289
fillins = 151
solver = Normal
Matrix Compiler1: 15.82 KB object code size  15.6/8.2/[2.8]
Matrix Compiler2: 20.94 KB object code size  7.7/26.5/[3.8]

