Circuit: * C:\Users\---\Desktop\DCE\dce-g5-proyecto_integrador\Checkpoint 4\Simus\Buck-lazo-abierto.asc

Direct Newton iteration for .op point succeeded.

Date: Wed Oct 30 23:47:26 2024
Total elapsed time: 1.117 seconds.

tnom = 27
temp = 27
method = modified trap
totiter = 765452
traniter = 765446
tranpoints = 214037
accept = 167196
rejected = 46841
matrix size = 11
fillins = 0
solver = Normal
Matrix Compiler1:      29 opcodes  0.1/[0.0]/0.1
Matrix Compiler2: off  [0.1]/0.1/0.1

