Circuit: * C:\Users\---\Desktop\DCE\dce-g5-proyecto_integrador\Checkpoint 4\Buck.asc

Per .tran options, skipping operating point for transient analysis.

Date: Wed Oct 30 18:48:50 2024
Total elapsed time: 1.504 seconds.

tnom = 27
temp = 27
method = Gear
totiter = 201592
traniter = 201592
tranpoints = 81036
accept = 73088
rejected = 7948
matrix size = 39
fillins = 25
solver = Normal
Matrix Compiler1: 2.74 KB object code size  0.5/0.3/[0.2]
Matrix Compiler2: 3.28 KB object code size  0.3/0.4/[0.2]

