Circuit: * C:\Users\---\Desktop\DCE\dce-g5-proyecto_integrador\Checkpoint 4\Simus\Buck-lazo-abierto.asc

Instance "m:u1:_gd_template:_lo_stage:_lo_nmos": Length shorter than recommended for a level 1 MOSFET.
Instance "m:u1:_gd_template:_lo_stage:_lo_pmos": Length shorter than recommended for a level 1 MOSFET.
Instance "m:u1:_gd_template:_ho_stage:_ho_nmos": Length shorter than recommended for a level 1 MOSFET.
Instance "m:u1:_gd_template:_ho_stage:_ho_pmos": Length shorter than recommended for a level 1 MOSFET.
Per .tran options, skipping operating point for transient analysis.
Changing Tseed to 9.76563e-011
Changing Tseed to 9.76562e-013
Changing Tseed to 9.76562e-010
Changing Tseed to 9.76563e-014
Heightened Def Con from 2.61415e-010 to 1.6125e-009
Heightened Def Con from 1.70785e-009 to 6.70785e-009
Heightened Def Con from 1.5275e-008 to 2.0275e-008
Heightened Def Con from 3.56721e-008 to 3.86721e-008
Heightened Def Con from 4.72193e-008 to 5.12193e-008
Heightened Def Con from 6.40057e-008 to 6.70057e-008
Heightened Def Con from 6.90137e-008 to 7.20137e-008
Heightened Def Con from 7.9836e-008 to 8.2836e-008
Heightened Def Con from 1.3628e-007 to 1.3928e-007
Heightened Def Con from 1.41544e-007 to 1.44544e-007
Heightened Def Con from 2.04035e-007 to 2.07035e-007
Heightened Def Con from 2.70307e-007 to 2.73307e-007
Heightened Def Con from 3.37187e-007 to 3.40187e-007
Heightened Def Con from 4.04087e-007 to 4.07087e-007
Heightened Def Con from 4.70981e-007 to 4.73981e-007
Heightened Def Con from 5.38536e-007 to 5.41536e-007
Heightened Def Con from 6.6914e-007 to 6.7114e-007
Heightened Def Con from 6.71233e-007 to 6.71237e-007
Heightened Def Con from 6.71237e-007 to 6.71243e-007
Heightened Def Con from 6.71306e-007 to 6.71699e-007
Heightened Def Con from 6.71761e-007 to 6.74761e-007
Heightened Def Con from 2.6382e-006 to 2.6402e-006
Heightened Def Con from 2.64685e-006 to 2.65485e-006
Heightened Def Con from 2.78281e-006 to 2.78581e-006
Heightened Def Con from 2.80413e-006 to 2.80413e-006
Heightened Def Con from 2.80413e-006 to 2.80414e-006
Heightened Def Con from 2.80414e-006 to 2.80414e-006
Heightened Def Con from 2.80414e-006 to 2.80414e-006
Heightened Def Con from 2.80415e-006 +to 2.80415e-006
Heightened Def Con from 2.80415e-006 to 2.80416e-006
Heightened Def Con from 2.80416e-006 to 2.80416e-006
Heightened Def Con from 2.80416e-006 to 2.80416e-006
Heightened Def Con from 2.80416e-006 to 2.80416e-006
Heightened Def Con from 2.80416e-006 to 2.80417e-006
Heightened Def Con from 2.80417e-006 to 2.80417e-006
Heightened Def Con from 2.80417e-006 to 2.80417e-006
Heightened Def Con from 2.80417e-006 to 2.80417e-006
Heightened Def Con from 2.80417e-006 to 2.80417e-006
Heightened Def Con from 2.80417e-006 to 2.80418e-006
Heightened Def Con from 2.80421e-006 to 2.80421e-006
Heightened Def Con from 2.80431e-006 to 2.80445e-006
Heightened Def Con from 2.80445e-006 to 2.81245e-006
Heightened Def Con from 2.98399e-006 to 2.98699e-006
Heightened Def Con from 3.05227e-006 to 3.05527e-006
Heightened Def Con from 3.18394e-006 to 3.18694e-006
Heightened Def Con from 3.25215e-006 to 3.25515e-006
Heightened Def Con from 3.30505e-006 to 3.30705e-006
Heightened Def Con from 3.31463e-006 to 3.31663e-006
Heightened Def Con from 3.31745e-006 to 3.31771e-006
Heightened Def Con from 3.3178e-006 to 3.31782e-006
Heightened Def Con from 3.31782e-006 to 3.31787e-006
Heightened Def Con from 3.31801e-006 to 3.31802e-006
Heightened Def Con from 3.31802e-006 to 3.31802e-006
Heightened Def Con from 3.31802e-006 to 3.31804e-006
Heightened Def Con from 3.31804e-006 to 3.31807e-006
Heightened Def Con from 3.31822e-006 to 3.31822e-006
Heightened Def Con from 3.31823e-006 to 3.31824e-006
Heightened Def Con from 3.31843e-006 to 3.31844e-006
Heightened Def Con from 3.31844e-006 to 3.31846e-006
Heightened Def Con from 3.31847e-006 to 3.31847e-006
Heightened Def Con from 3.31859e-006 to 3.31863e-006
Heightened Def Con from 3.31863e-006 to 3.31864e-006
Heightened Def Con from 3.31864e-006 to 3.31865e-006
Heightened Def Con from 3.31867e-006 to 3.3187e-006
Heightened Def Con from 3.31873e-006 to 3.31874e-006
Heightened Def Con from 3.31875e-006 to 3.31875e-006
Heightened Def Con from 3.31875e-006 to 3.31875e-006
Heightened Def Con from 3.3188e-006 to 3.3188e-006
Heightened Def Con from 3.3188e-006 to 3.31882e-006
Heightened Def Con from 3.31884e-006 to 3.31885e-006
Heightened Def Con from 3.31885e-006 to 3.31889e-006
Heightened Def Con from 3.31905e-006 to 3.31906e-006
Heightened Def Con from 3.31907e-006 to 3.31908e-006
Heightened Def Con from 3.31921e-006 to 3.31921e-006
Heightened Def Con from 3.31921e-006 to 3.31922e-006
Heightened Def Con from 3.31925e-006 to 3.31927e-006
Heightened Def Con from 3.31939e-006 to 3.31953e-006
Heightened Def Con from 3.31957e-006 to 3.32357e-006
Heightened Def Con from 3.86146e-006 to 3.86346e-006
Heightened Def Con from 5.00002e-006 to 5.00802e-006
Heightened Def Con from 5.14573e-006 to 5.14785e-006
Heightened Def Con from 5.14804e-006 to 5.14804e-006
Heightened Def Con from 5.14805e-006 to 5.14831e-006
Heightened Def Con from 5.14834e-006 to 5.14836e-006
Heightened Def Con from 5.14849e-006 to 5.14849e-006
Heightened Def Con from 5.14864e-006 to 5.14865e-006
Heightened Def Con from 5.1487e-006 to 5.14872e-006
Heightened Def Con from 5.14872e-006 to 5.14876e-006
Heightened Def Con from 5.14898e-006 to 5.14903e-006
Heightened Def Con from 5.14903e-006 to 5.14903e-006
Heightened Def Con from 5.14919e-006 to 5.14922e-006
Heightened Def Con from 5.14941e-006 to 5.14944e-006
Heightened Def Con from 5.14977e-006 to 5.14977e-006
Heightened Def Con from 5.14977e-006 +to 5.1498e-006
Heightened Def Con from 5.14981e-006 to 5.14981e-006
Heightened Def Con from 5.14981e-006 to 5.14983e-006
Heightened Def Con from 5.15003e-006 to 5.15006e-006
Heightened Def Con from 5.15008e-006 to 5.16108e-006
Heightened Def Con from 5.20428e-006 to 5.20728e-006
Heightened Def Con from 5.27114e-006 to 5.27414e-006
Heightened Def Con from 5.3383e-006 to 5.3413e-006
Heightened Def Con from 5.40751e-006 to 5.41051e-006
Heightened Def Con from 5.65795e-006 to 5.65995e-006
Heightened Def Con from 5.67622e-006 to 5.67622e-006
Heightened Def Con from 5.67622e-006 to 5.67623e-006
Heightened Def Con from 5.67651e-006 to 5.67651e-006
Heightened Def Con from 5.67665e-006 to 5.67665e-006
Heightened Def Con from 5.67665e-006 to 5.67665e-006
Heightened Def Con from 5.67678e-006 to 5.67679e-006
Heightened Def Con from 5.67681e-006 to 5.67681e-006
Heightened Def Con from 5.67681e-006 to 5.6772e-006
Heightened Def Con from 5.67721e-006 to 5.68121e-006
Heightened Def Con from 5.69002e-006 to 5.69402e-006
Heightened Def Con from 5.74487e-006 to 5.74787e-006
Heightened Def Con from 7.47864e-006 to 7.48064e-006
Heightened Def Con from 7.64683e-006 to 7.65483e-006
Heightened Def Con from 7.65517e-006 to 7.65817e-006
Heightened Def Con from 7.71606e-006 to 7.71906e-006
Heightened Def Con from 7.7817e-006 to 7.7857e-006
Heightened Def Con from 7.80332e-006 to 7.80332e-006
Heightened Def Con from 7.80333e-006 to 7.80333e-006
Heightened Def Con from 7.80333e-006 to 7.80333e-006
Heightened Def Con from 7.80333e-006 to 7.80333e-006
Heightened Def Con from 7.80333e-006 to 7.80333e-006
Heightened Def Con from 7.80333e-006 to 7.80334e-006
Heightened Def Con from 7.80334e-006 to 7.80334e-006
Heightened Def Con from 7.80334e-006 to 7.80335e-006
Heightened Def Con from 7.80335e-006 to 7.80335e-006
Heightened Def Con from 7.80335e-006 to 7.80335e-006
Heightened Def Con from 7.80335e-006 to 7.80335e-006
Heightened Def Con from 7.80335e-006 to 7.80335e-006
Heightened Def Con from 7.80335e-006 to 7.80336e-006
Heightened Def Con from 7.80337e-006 to 7.80337e-006
Heightened Def Con from 7.80337e-006 to 7.80337e-006
Heightened Def Con from 7.80337e-006 to 7.80337e-006
Heightened Def Con from 7.80337e-006 to 7.80337e-006
Heightened Def Con from 7.80337e-006 to 7.80337e-006
Heightened Def Con from 7.80337e-006 to 7.80338e-006
Heightened Def Con from 7.80338e-006 to 7.80338e-006
Heightened Def Con from 7.80338e-006 to 7.80338e-006
Heightened Def Con from 7.80339e-006 to 7.80339e-006
Heightened Def Con from 7.80339e-006 to 7.8034e-006
Heightened Def Con from 7.8034e-006 to 7.8034e-006
Heightened Def Con from 7.8034e-006 to 7.8034e-006
Heightened Def Con from 7.8034e-006 to 7.8034e-006
Heightened Def Con from 7.8034e-006 to 7.80341e-006
Heightened Def Con from 7.80342e-006 to 7.80342e-006
Heightened Def Con from 7.80342e-006 to 7.80342e-006
Heightened Def Con from 7.80342e-006 to 7.80342e-006
Heightened Def Con from 7.80342e-006 to 7.80342e-006
Heightened Def Con from 7.80342e-006 to 7.80342e-006
Heightened Def Con from 7.80342e-006 to 7.80342e-006
Heightened Def Con from 7.80342e-006 to 7.80343e-006
Heightened Def Con from 7.80343e-006 to 7.80343e-006
Heightened Def Con from 7.80343e-006 to 7.80343e-006
Heightened Def Con from 7.80343e-006 to 7.80344e-006
Heightened Def Con from 7.80345e-006 to 7.80345e-006
Heightened Def Con from 7.80345e-006 to 7.80345e-006
Heightened Def Con from 7.80345e-006 to 7.80345e-006
Heightened Def Con from 7.80345e-006 to 7.80345e-006
Heightened Def Con from 7.80345e-006 to 7.80346e-006
Heightened Def Con from 7.80346e-006 to 7.80346e-006
Heightened Def Con from 7.80346e-006 to 7.80346e-006
Heightened Def Con from 7.80346e-006 to 7.80346e-006
Heightened Def Con from 7.80346e-006 to 7.80347e-006
Heightened Def Con from 7.80347e-006 to 7.80347e-006
Heightened Def Con from 7.80347e-006 to 7.80347e-006
Heightened Def Con from 7.80347e-006 to 7.80348e-006
Heightened Def Con from 7.80348e-006 to 7.80348e-006
Heightened Def Con from 7.80349e-006 to 7.80349e-006
Heightened Def Con from 7.80349e-006 to 7.80349e-006
Heightened Def Con from 7.80349e-006 to 7.80349e-006
Heightened Def Con from 7.80349e-006 to 7.80349e-006
Heightened Def Con from 7.80349e-006 to 7.80349e-006
Heightened Def Con from 7.8035e-006 to 7.8035e-006
Heightened Def Con from 7.8035e-006 to 7.80351e-006
Heightened Def Con from 7.80351e-006 to 7.80351e-006
Heightened Def Con from 7.80352e-006 to 7.80352e-006
Heightened Def Con from 7.80352e-006 to 7.80352e-006
Heightened Def Con from 7.80352e-006 to 7.80352e-006
Heightened Def Con from 7.80352e-006 to 7.80352e-006
Heightened Def Con from 7.80352e-006 to 7.80352e-006
Heightened Def Con from 7.80352e-006 to 7.80352e-006
Heightened Def Con from 7.80352e-006 to 7.80352e-006
Heightened Def Con from 7.80353e-006 to 7.80354e-006
Heightened Def Con from 7.80356e-006 to 7.80356e-006
Heightened Def Con from 7.80356e-006 to 7.80356e-006
Heightened Def Con from 7.80356e-006 to 7.80356e-006
Heightened Def Con from 7.80356e-006 to 7.80356e-006
Heightened Def Con from 7.80356e-006 to 7.80356e-006
Heightened Def Con from 7.80356e-006 to 7.80356e-006
Heightened Def Con from 7.80356e-006 to 7.80357e-006
Heightened Def Con from 7.80357e-006 to 7.80357e-006
Heightened Def Con from 7.80358e-006 to 7.80358e-006
Heightened Def Con from 7.80358e-006 to 7.80359e-006
Heightened Def Con from 7.80361e-006 to 7.80361e-006
Heightened Def Con from 7.80362e-006 to 7.80362e-006
Heightened Def Con from 7.80363e-006 to 7.80363e-006
Heightened Def Con from 7.80363e-006 to 7.80363e-006
Heightened Def Con from 7.80363e-006 to 7.80363e-006
Heightened Def Con from 7.80363e-006 to 7.80363e-006
Heightened Def Con from 7.80364e-006 to 7.80364e-006
Heightened Def Con from 7.80389e-006 to 7.80389e-006
Heightened Def Con from 7.80389e-006 to 7.80389e-006
Heightened Def Con from 7.80389e-006 to 7.80389e-006
Heightened Def Con from 7.80389e-006 to 7.8039e-006
Heightened Def Con from 7.80391e-006 to 7.80391e-006
Heightened Def Con from 7.80394e-006 to 7.80394e-006
Heightened Def Con from 7.80394e-006 to 7.80395e-006
Heightened Def Con from 7.80395e-006 to 7.80395e-006
Heightened Def Con from 7.80395e-006 to 7.80395e-006
Heightened Def Con from 7.80395e-006 to 7.80396e-006
Heightened Def Con from 7.80397e-006 to 7.80397e-006
Heightened Def Con from 7.80398e-006 to 7.80398e-006
Heightened Def Con from 7.80398e-006 to 7.80398e-006
Heightened Def Con from 7.80398e-006 to 7.80398e-006
Heightened Def Con from 7.80398e-006 to 7.80398e-006
Heightened Def Con from 7.80399e-006 to 7.80399e-006
Heightened Def Con from 7.80402e-006 to 7.80402e-006
Heightened Def Con from 7.80402e-006 to 7.80402e-006
Heightened Def Con from 7.80402e-006 to 7.80402e-006
Heightened Def Con from 7.80402e-006 to 7.80403e-006
Heightened Def Con from 7.80405e-006 to 7.80405e-006
Heightened Def Con from 7.80405e-006 to 7.80405e-006
Heightened Def Con from 7.80405e-006 to 7.80405e-006
Heightened Def Con from 7.80405e-006 to 7.80405e-006
Heightened Def Con from 7.80405e-006 to 7.80406e-006
Heightened Def Con from 7.80408e-006 to 7.80408e-006
Heightened Def Con from 7.80408e-006 to 7.80408e-006
Heightened Def Con from 7.80409e-006 +to 7.80409e-006
Heightened Def Con from 7.80409e-006 to 7.80409e-006
Heightened Def Con from 7.80409e-006 to 7.80409e-006
Heightened Def Con from 7.80409e-006 to 7.80409e-006
Heightened Def Con from 7.80409e-006 to 7.80409e-006
Heightened Def Con from 7.80409e-006 to 7.80409e-006
Heightened Def Con from 7.80409e-006 +to 7.80409e-006
Heightened Def Con from 7.80409e-006 to 7.8041e-006
Heightened Def Con from 7.80411e-006 to 7.80411e-006
Heightened Def Con from 7.80411e-006 to 7.80411e-006
Heightened Def Con from 7.80411e-006 to 7.80424e-006
Heightened Def Con from 7.80425e-006 to 7.81225e-006
Heightened Def Con from 7.84981e-006 to 7.85281e-006
Heightened Def Con from 7.91695e-006 to 7.91995e-006
Heightened Def Con from 7.98314e-006 to 7.98614e-006
Heightened Def Con from 8.11693e-006 to 8.11993e-006
Heightened Def Con from 8.30074e-006 to 8.30274e-006
Heightened Def Con from 8.31925e-006 to 8.31929e-006
Heightened Def Con from 8.31935e-006 to 8.31948e-006
Heightened Def Con from 8.31949e-006 to 8.31949e-006
Heightened Def Con from 8.31988e-006 to 8.32001e-006
Heightened Def Con from 8.32002e-006 to 8.32006e-006
Heightened Def Con from 8.32006e-006 to 8.32009e-006
Heightened Def Con from 8.32011e-006 to 8.32013e-006
Heightened Def Con from 8.32029e-006 to 8.32029e-006
Heightened Def Con from 8.32029e-006 to 8.32035e-006
Heightened Def Con from 8.32046e-006 to 8.32046e-006
Heightened Def Con from 8.32046e-006 to 8.32047e-006
Heightened Def Con from 8.32048e-006 to 8.32048e-006
Heightened Def Con from 8.32052e-006 to 8.32052e-006
Heightened Def Con from 8.32052e-006 to 8.32053e-006
Heightened Def Con from 8.32072e-006 to 8.32074e-006
Heightened Def Con from 8.32093e-006 to 8.32095e-006
Heightened Def Con from 8.32097e-006 to 8.32097e-006
Heightened Def Con from 8.32098e-006 to 8.32098e-006
Heightened Def Con from 8.32098e-006 to 8.32098e-006
Heightened Def Con from 8.32098e-006 to 8.32099e-006
Heightened Def Con from 8.32113e-006 to 8.32114e-006
Heightened Def Con from 8.32116e-006 to 8.32119e-006
Heightened Def Con from 8.32133e-006 to 8.32135e-006
Heightened Def Con from 8.32135e-006 to 8.32136e-006
Heightened Def Con from 8.32136e-006 to 8.32136e-006
Heightened Def Con from 8.32136e-006 to 8.32139e-006
Heightened Def Con from 8.32139e-006 to 8.3214e-006
Heightened Def Con from 8.32154e-006 to 8.32154e-006
Heightened Def Con from 8.32156e-006 to 8.32161e-006
Heightened Def Con from 8.32161e-006 to 8.32165e-006
Heightened Def Con from 8.32174e-006 to 8.32175e-006
Heightened Def Con from 8.32175e-006 to 8.32175e-006
Heightened Def Con from 8.32175e-006 to 8.3218e-006
Heightened Def Con from 8.32196e-006 to 8.32199e-006
Heightened Def Con from 8.32202e-006 to 8.32602e-006
Heightened Def Con from 8.32634e-006 to 8.32934e-006
Heightened Def Con from 8.35371e-006 to 8.36171e-006
Heightened Def Con from 8.36178e-006 to 8.36478e-006
Heightened Def Con from 9.9149e-006 to 9.9169e-006
Heightened Def Con from 9.98313e-006 to 9.98513e-006
Heightened Def Con from 1e-005 to 1.0008e-005
Heightened Def Con from 1.00087e-005 to 1.00117e-005
Heightened Def Con from 1.00695e-005 to 1.00725e-005
Heightened Def Con from 1.01362e-005 to 1.01372e-005
Heightened Def Con from 1.01372e-005 to 1.01402e-005
Heightened Def Con from 1.01583e-005 to 1.01583e-005
Heightened Def Con from 1.01586e-005 to 1.01587e-005
Heightened Def Con from 1.01587e-005 to 1.01587e-005
Heightened Def Con from 1.01588e-005 to 1.01588e-005
Heightened Def Con from 1.01593e-005 to 1.01593e-005
Heightened Def Con from 1.01594e-005 to 1.01595e-005
Heightened Def Con from 1.01596e-005 to 1.01597e-005
Heightened Def Con from 1.016e-005 to 1.016e-005
Heightened Def Con from 1.016e-005 to 1.01601e-005
Heightened Def Con from 1.01604e-005 to 1.01605e-005
Heightened Def Con from 1.01605e-005 to 1.01605e-005
Heightened Def Con from 1.01605e-005 to 1.01605e-005
Heightened Def Con from 1.01606e-005 to 1.0161e-005
Heightened Def Con from 1.01614e-005 to 1.01634e-005
Heightened Def Con from 1.01635e-005 to 1.01705e-005
Heightened Def Con from 1.02046e-005 to 1.02076e-005
Heightened Def Con from 1.02697e-005 to 1.02737e-005
Heightened Def Con from 1.03379e-005 to 1.03409e-005
Heightened Def Con from 1.06554e-005 to 1.06574e-005
Heightened Def Con from 1.06737e-005 to 1.06737e-005
Heightened Def Con from 1.06739e-005 to 1.06739e-005
Heightened Def Con from 1.06739e-005 to 1.06739e-005
Heightened Def Con from 1.06742e-005 to 1.06742e-005
Heightened Def Con from 1.06742e-005 to 1.06742e-005
Heightened Def Con from 1.06743e-005 to 1.06743e-005
Heightened Def Con from 1.06743e-005 to 1.06743e-005
Heightened Def Con from 1.06743e-005 to 1.06743e-005
Heightened Def Con from 1.06744e-005 to 1.06751e-005
Heightened Def Con from 1.06751e-005 to 1.06781e-005
Heightened Def Con from 1.06854e-005 to 1.06894e-005
Heightened Def Con from 1.06894e-005 to 1.06924e-005
Heightened Def Con from 1.07401e-005 to 1.07431e-005
Heightened Def Con from 1.21894e-005 to 1.21914e-005
Heightened Def Con from 1.24454e-005 to 1.24474e-005
Heightened Def Con from 1.25735e-005 to 1.25755e-005
Heightened Def Con from 1.2639e-005 to 1.2641e-005
Heightened Def Con from 1.26443e-005 to 1.26553e-005
Heightened Def Con from 1.27182e-005 to 1.27212e-005
Heightened Def Con from 1.28027e-005 to 1.28077e-005
Heightened Def Con from 1.28092e-005 to 1.28092e-005
Heightened Def Con from 1.28092e-005 to 1.28092e-005
Heightened Def Con from 1.28092e-005 to 1.28092e-005
Heightened Def Con from 1.28092e-005 to 1.28092e-005
Heightened Def Con from 1.28092e-005 to 1.28092e-005
Heightened Def Con from 1.28092e-005 to 1.28092e-005
Heightened Def Con from 1.28092e-005 to 1.28092e-005
Heightened Def Con from 1.28092e-005 to 1.28092e-005
Heightened Def Con from 1.28092e-005 to 1.28092e-005
Heightened Def Con from 1.28092e-005 +++to 1.28092e-005
Heightened Def Con from 1.28092e-005 to 1.28092e-005
Heightened Def Con from 1.28092e-005 to 1.28092e-005
Heightened Def Con from 1.28092e-005 to 1.28092e-005
Heightened Def Con from 1.28092e-005 to 1.28092e-005
Heightened Def Con from 1.28092e-005 to 1.28092e-005
Heightened Def Con from 1.28092e-005 to 1.28092e-005
Heightened Def Con from 1.28092e-005 to 1.28092e-005
Heightened Def Con from 1.28092e-005 to 1.28092e-005
Heightened Def Con from 1.28092e-005 to 1.28092e-005
Heightened Def Con from 1.28092e-005 to 1.28092e-005
Heightened Def Con from 1.28092e-005 to 1.28092e-005
Heightened Def Con from 1.28092e-005 to 1.28092e-005
Heightened Def Con from 1.28092e-005 to 1.28092e-005
Heightened Def Con from 1.28092e-005 to 1.28092e-005
Heightened Def Con from 1.28092e-005 to 1.28092e-005
Heightened Def Con from 1.28092e-005 to 1.28092e-005
Heightened Def Con from 1.28093e-005 to 1.28093e-005
Heightened Def Con from 1.28093e-005 to 1.28093e-005
Heightened Def Con from 1.28093e-005 to 1.28093e-005
Heightened Def Con from 1.28093e-005 to 1.28093e-005
Heightened Def Con from 1.28093e-005 to 1.28093e-005
Heightened Def Con from 1.28093e-005 to 1.28093e-005
Heightened Def Con from 1.28093e-005 to 1.28093e-005
Heightened Def Con from 1.28093e-005 to 1.28093e-005
Heightened Def Con from 1.28093e-005 to 1.28093e-005
Heightened Def Con from 1.28093e-005 to 1.28093e-005
Heightened Def Con from 1.28093e-005 to 1.28093e-005
Heightened Def Con from 1.28093e-005 to 1.28093e-005
Heightened Def Con from 1.28093e-005 to 1.28093e-005
Heightened Def Con from 1.28094e-005 to 1.28094e-005
Heightened Def Con from 1.28094e-005 to 1.28094e-005
Heightened Def Con from 1.28094e-005 to 1.28094e-005
Heightened Def Con from 1.28094e-005 to 1.28094e-005
Heightened Def Con from 1.28094e-005 to 1.28094e-005
Heightened Def Con from 1.28095e-005 to 1.28095e-005
Heightened Def Con from 1.28095e-005 to 1.28095e-005
Heightened Def Con from 1.28095e-005 to 1.28095e-005
Heightened Def Con from 1.28095e-005 to 1.28095e-005
Heightened Def Con from 1.28095e-005 to 1.28095e-005
Heightened Def Con from 1.28095e-005 to 1.28095e-005
Heightened Def Con from 1.28095e-005 ++to 1.28095e-005
Heightened Def Con from 1.28095e-005 to 1.28095e-005
Heightened Def Con from 1.28095e-005 to 1.28095e-005
Heightened Def Con from 1.28095e-005 to 1.28095e-005
Heightened Def Con from 1.28095e-005 to 1.28095e-005
Heightened Def Con from 1.28095e-005 to 1.28095e-005
Heightened Def Con from 1.28095e-005 to 1.28095e-005
Heightened Def Con from 1.28095e-005 to 1.28095e-005
Heightened Def Con from 1.28095e-005 to 1.28095e-005
Heightened Def Con from 1.28095e-005 to 1.28095e-005
Heightened Def Con from 1.28095e-005 to 1.28095e-005
Heightened Def Con from 1.28096e-005 to 1.28096e-005
Heightened Def Con from 1.28096e-005 to 1.28096e-005
Heightened Def Con from 1.28097e-005 to 1.28097e-005
Heightened Def Con from 1.28097e-005 +to 1.28097e-005
Heightened Def Con from 1.28097e-005 to 1.28097e-005
Heightened Def Con from 1.28097e-005 to 1.28097e-005
Heightened Def Con from 1.28097e-005 to 1.28097e-005
Heightened Def Con from 1.28097e-005 to 1.28097e-005
Heightened Def Con from 1.28097e-005 to 1.28097e-005
Heightened Def Con from 1.28097e-005 to 1.28097e-005
Heightened Def Con from 1.28097e-005 to 1.28097e-005
Heightened Def Con from 1.28097e-005 to 1.28097e-005
Heightened Def Con from 1.28097e-005 +to 1.28097e-005
Heightened Def Con from 1.28097e-005 to 1.28097e-005
Heightened Def Con from 1.28097e-005 to 1.28097e-005
Heightened Def Con from 1.28097e-005 to 1.28097e-005
Heightened Def Con from 1.28098e-005 to 1.28098e-005
Heightened Def Con from 1.28098e-005 to 1.28098e-005
Heightened Def Con from 1.28098e-005 to 1.28098e-005
Heightened Def Con from 1.28098e-005 to 1.28098e-005
Heightened Def Con from 1.28098e-005 to 1.28098e-005
Heightened Def Con from 1.28098e-005 to 1.28098e-005
Heightened Def Con from 1.28098e-005 to 1.28098e-005
Heightened Def Con from 1.28098e-005 to 1.28098e-005
Heightened Def Con from 1.28098e-005 to 1.28098e-005
Heightened Def Con from 1.28098e-005 to 1.28098e-005
Heightened Def Con from 1.28098e-005 to 1.28098e-005
Heightened Def Con from 1.28098e-005 to 1.28098e-005
Heightened Def Con from 1.28098e-005 to 1.28098e-005
Heightened Def Con from 1.28098e-005 to 1.28098e-005
Heightened Def Con from 1.28098e-005 to 1.28098e-005
Heightened Def Con from 1.28098e-005 to 1.28098e-005
Heightened Def Con from 1.28098e-005 to 1.28098e-005
Heightened Def Con from 1.28098e-005 to 1.28098e-005
Heightened Def Con from 1.28098e-005 to 1.28098e-005
Heightened Def Con from 1.28098e-005 to 1.28098e-005
Heightened Def Con from 1.28098e-005 to 1.28098e-005
Heightened Def Con from 1.28098e-005 to 1.28101e-005
Heightened Def Con from 1.28101e-005 to 1.28171e-005
Heightened Def Con from 1.28503e-005 to 1.28533e-005
Heightened Def Con from 1.30499e-005 to 1.30529e-005
Heightened Def Con from 1.31168e-005 to 1.31198e-005
Heightened Def Con from 1.31856e-005 to 1.31866e-005
Heightened Def Con from 1.31868e-005 to 1.31898e-005
Heightened Def Con from 1.33163e-005 to 1.33164e-005
Heightened Def Con from 1.33165e-005 to 1.33165e-005
Heightened Def Con from 1.33168e-005 to 1.33168e-005
Heightened Def Con from 1.33168e-005 to 1.33168e-005
Heightened Def Con from 1.3317e-005 to 1.3317e-005
Heightened Def Con from 1.3317e-005 to 1.3317e-005
Heightened Def Con from 1.3317e-005 to 1.3317e-005
Heightened Def Con from 1.33173e-005 to 1.33173e-005
Heightened Def Con from 1.33173e-005 to 1.33174e-005
Heightened Def Con from 1.33175e-005 to 1.33175e-005
Heightened Def Con from 1.33175e-005 to 1.33177e-005
Heightened Def Con from 1.33178e-005 to 1.33178e-005
Heightened Def Con from 1.33178e-005 to 1.33178e-005
Heightened Def Con from 1.33178e-005 to 1.33179e-005
Heightened Def Con from 1.33179e-005 to 1.3318e-005
Heightened Def Con from 1.3318e-005 to 1.3318e-005
Heightened Def Con from 1.33182e-005 to 1.33182e-005
Heightened Def Con from 1.33182e-005 to 1.33182e-005
Heightened Def Con from 1.33182e-005 to 1.33182e-005
Heightened Def Con from 1.33182e-005 to 1.33182e-005
Heightened Def Con from 1.33183e-005 to 1.33184e-005
Heightened Def Con from 1.33184e-005 to 1.33185e-005
Heightened Def Con from 1.33185e-005 to 1.33185e-005
Heightened Def Con from 1.33186e-005 to 1.33187e-005
Heightened Def Con from 1.33188e-005 to 1.33188e-005
Heightened Def Con from 1.33188e-005 to 1.33188e-005
Heightened Def Con from 1.33188e-005 to 1.33188e-005
Heightened Def Con from 1.33188e-005 to 1.33188e-005
Heightened Def Con from 1.3319e-005 to 1.3319e-005
Heightened Def Con from 1.33191e-005 to 1.33191e-005
Heightened Def Con from 1.33192e-005 to 1.33192e-005
Heightened Def Con from 1.33192e-005 to 1.33192e-005
Heightened Def Con from 1.33192e-005 to 1.33192e-005
Heightened Def Con from 1.33193e-005 to 1.33193e-005
Heightened Def Con from 1.33194e-005 to 1.33194e-005
Heightened Def Con from 1.33194e-005 to 1.33194e-005
Heightened Def Con from 1.33194e-005 to 1.33194e-005
Heightened Def Con from 1.33194e-005 to 1.33194e-005
Heightened Def Con from 1.33195e-005 to 1.33235e-005
Heightened Def Con from 1.3349e-005 to 1.3358e-005
Heightened Def Con from 1.49981e-005 to 1.50081e-005
Heightened Def Con from 1.51539e-005 to 1.51569e-005
Heightened Def Con from 1.51583e-005 to 1.51584e-005
Heightened Def Con from 1.51594e-005 to 1.51595e-005
Heightened Def Con from 1.51595e-005 to 1.51596e-005
Heightened Def Con from 1.51596e-005 to 1.51597e-005
Heightened Def Con from 1.51598e-005 to 1.51598e-005
Heightened Def Con from 1.51598e-005 to 1.51599e-005
Heightened Def Con from 1.516e-005 to 1.516e-005
Heightened Def Con from 1.516e-005 to 1.516e-005
Heightened Def Con from 1.51601e-005 to 1.51601e-005
Heightened Def Con from 1.51601e-005 to 1.51601e-005
Heightened Def Con from 1.51604e-005 to 1.51604e-005
Heightened Def Con from 1.51604e-005 to 1.51714e-005
Heightened Def Con from 1.52035e-005 to 1.52075e-005
Heightened Def Con from 1.52705e-005 to 1.52735e-005
Heightened Def Con from 1.53376e-005 to 1.53406e-005
Heightened Def Con from 1.54042e-005 to 1.54072e-005
Heightened Def Con from 1.54719e-005 to 1.54749e-005
Heightened Def Con from 1.55378e-005 to 1.55408e-005
Heightened Def Con from 1.56567e-005 to 1.56587e-005
Heightened Def Con from 1.56664e-005 to 1.56684e-005
Heightened Def Con from 1.56699e-005 to 1.56709e-005
Heightened Def Con from 1.5671e-005 to 1.5671e-005
Heightened Def Con from 1.5671e-005 to 1.5671e-005
Heightened Def Con from 1.5671e-005 to 1.5671e-005
Heightened Def Con from 1.56712e-005 to 1.56712e-005
Heightened Def Con from 1.56713e-005 to 1.56713e-005
Heightened Def Con from 1.56713e-005 to 1.56713e-005
Heightened Def Con from 1.56713e-005 to 1.56717e-005
Heightened Def Con from 1.56717e-005 to 1.56757e-005
Heightened Def Con from 1.56834e-005 to 1.56884e-005
Heightened Def Con from 1.5738e-005 to 1.5741e-005
Heightened Def Con from 1.7645e-005 to 1.7655e-005
Heightened Def Con from 1.77178e-005 to 1.77208e-005
Heightened Def Con from 1.77829e-005 to 1.77859e-005
Heightened Def Con from 1.78021e-005 to 1.78071e-005
Heightened Def Con from 1.78088e-005 to 1.78088e-005
Heightened Def Con from 1.78089e-005 to 1.78089e-005
Heightened Def Con from 1.78089e-005 to 1.78089e-005
Heightened Def Con from 1.78089e-005 to 1.78089e-005
Heightened Def Con from 1.78089e-005 to 1.78089e-005
Heightened Def Con from 1.78089e-005 to 1.78089e-005
Heightened Def Con from 1.78089e-005 to 1.78089e-005
Heightened Def Con from 1.78089e-005 +to 1.78089e-005
Heightened Def Con from 1.78089e-005 to 1.78089e-005
Heightened Def Con from 1.78089e-005 to 1.78089e-005
Heightened Def Con from 1.78089e-005 to 1.78089e-005
Heightened Def Con from 1.78089e-005 to 1.78089e-005
Heightened Def Con from 1.78089e-005 to 1.78089e-005
Heightened Def Con from 1.78089e-005 to 1.78089e-005
Heightened Def Con from 1.78089e-005 to 1.78089e-005
Heightened Def Con from 1.7809e-005 to 1.7809e-005
Heightened Def Con from 1.7809e-005 to 1.7809e-005
Heightened Def Con from 1.7809e-005 +to 1.7809e-005
Heightened Def Con from 1.7809e-005 to 1.7809e-005
Heightened Def Con from 1.7809e-005 to 1.7809e-005
Heightened Def Con from 1.7809e-005 to 1.7809e-005
Heightened Def Con from 1.7809e-005 to 1.7809e-005
Heightened Def Con from 1.7809e-005 to 1.7809e-005
Heightened Def Con from 1.7809e-005 to 1.7809e-005
Heightened Def Con from 1.7809e-005 to 1.7809e-005
Heightened Def Con from 1.7809e-005 to 1.7809e-005
Heightened Def Con from 1.7809e-005 to 1.7809e-005
Heightened Def Con from 1.7809e-005 to 1.7809e-005
Heightened Def Con from 1.7809e-005 to 1.7809e-005
Heightened Def Con from 1.7809e-005 to 1.7809e-005
Heightened Def Con from 1.7809e-005 to 1.7809e-005
Heightened Def Con from 1.7809e-005 to 1.7809e-005
Heightened Def Con from 1.7809e-005 to 1.7809e-005
Heightened Def Con from 1.7809e-005 to 1.7809e-005
Heightened Def Con from 1.7809e-005 to 1.7809e-005
Heightened Def Con from 1.7809e-005 to 1.7809e-005
Heightened Def Con from 1.7809e-005 to 1.7809e-005
Heightened Def Con from 1.78091e-005 to 1.78091e-005
Heightened Def Con from 1.78091e-005 to 1.78091e-005
Heightened Def Con from 1.78091e-005 to 1.78091e-005
Heightened Def Con from 1.78091e-005 to 1.78091e-005
Heightened Def Con from 1.78091e-005 to 1.78091e-005
Heightened Def Con from 1.78091e-005 to 1.78091e-005
Heightened Def Con from 1.78091e-005 to 1.78091e-005
Heightened Def Con from 1.78091e-005 to 1.78091e-005
Heightened Def Con from 1.78091e-005 to 1.78091e-005
Heightened Def Con from 1.78091e-005 to 1.78091e-005
Heightened Def Con from 1.78091e-005 to 1.78091e-005
Heightened Def Con from 1.78091e-005 to 1.78091e-005
Heightened Def Con from 1.78091e-005 to 1.78091e-005
Heightened Def Con from 1.78091e-005 to 1.78091e-005
Heightened Def Con from 1.78091e-005 to 1.78091e-005
Heightened Def Con from 1.78091e-005 to 1.78091e-005
Heightened Def Con from 1.78091e-005 to 1.78091e-005
Heightened Def Con from 1.78091e-005 to 1.78091e-005
Heightened Def Con from 1.78091e-005 to 1.78093e-005
Heightened Def Con from 1.78093e-005 to 1.78173e-005
Heightened Def Con from 1.78503e-005 to 1.78533e-005
Heightened Def Con from 1.79197e-005 to 1.79227e-005
Heightened Def Con from 1.80506e-005 to 1.80536e-005
Heightened Def Con from 1.81191e-005 to 1.81221e-005
Heightened Def Con from 1.82521e-005 to 1.82551e-005
Heightened Def Con from 1.83044e-005 to 1.83064e-005
Heightened Def Con from 1.83139e-005 to 1.83159e-005
Heightened Def Con from 1.8318e-005 to 1.8318e-005
Heightened Def Con from 1.83181e-005 to 1.83181e-005
Heightened Def Con from 1.83181e-005 to 1.83181e-005
Heightened Def Con from 1.83181e-005 to 1.83181e-005
Heightened Def Con from 1.83181e-005 to 1.83182e-005
Heightened Def Con from 1.83183e-005 to 1.83184e-005
Heightened Def Con from 1.83184e-005 to 1.83186e-005
Heightened Def Con from 1.83187e-005 to 1.83187e-005
Heightened Def Con from 1.83188e-005 to 1.83188e-005
Heightened Def Con from 1.83189e-005 to 1.83189e-005
Heightened Def Con from 1.8319e-005 to 1.8319e-005
Heightened Def Con from 1.8319e-005 to 1.8319e-005
Heightened Def Con from 1.8319e-005 to 1.8319e-005
Heightened Def Con from 1.8319e-005 to 1.83191e-005
Heightened Def Con from 1.83191e-005 to 1.83191e-005
Heightened Def Con from 1.83192e-005 to 1.83192e-005
Heightened Def Con from 1.83193e-005 to 1.83193e-005
Heightened Def Con from 1.83193e-005 to 1.83194e-005
Heightened Def Con from 1.83194e-005 to 1.83194e-005
Heightened Def Con from 1.83195e-005 to 1.83195e-005
Heightened Def Con from 1.83196e-005 to 1.83196e-005
Heightened Def Con from 1.83196e-005 to 1.83196e-005
Heightened Def Con from 1.83198e-005 to 1.83198e-005
Heightened Def Con from 1.83198e-005 to 1.83198e-005
Heightened Def Con from 1.83199e-005 to 1.83199e-005
Heightened Def Con from 1.83199e-005 to 1.83199e-005
Heightened Def Con from 1.832e-005 to 1.832e-005
Heightened Def Con from 1.83201e-005 to 1.83201e-005
Heightened Def Con from 1.83201e-005 to 1.83202e-005
Heightened Def Con from 1.83202e-005 to 1.83252e-005
Heightened Def Con from 1.83487e-005 to 1.83587e-005
Heightened Def Con from 1.97849e-005 to 1.97869e-005
Heightened Def Con from 2.00001e-005 to 2.00081e-005
Heightened Def Con from 2.00693e-005 to 2.00723e-005
Heightened Def Con from 2.01364e-005 to 2.01394e-005
Heightened Def Con from 2.0157e-005 to 2.01573e-005
Heightened Def Con from 2.01578e-005 to 2.01579e-005
Heightened Def Con from 2.01579e-005 to 2.01579e-005
Heightened Def Con from 2.01584e-005 to 2.01585e-005
Heightened Def Con from 2.01587e-005 to 2.01587e-005
Heightened Def Con from 2.01588e-005 to 2.01588e-005
Heightened Def Con from 2.0159e-005 to 2.01591e-005
Heightened Def Con from 2.01591e-005 to 2.01591e-005
Heightened Def Con from 2.01592e-005 to 2.01592e-005
Heightened Def Con from 2.01594e-005 to 2.01594e-005
Heightened Def Con from 2.01595e-005 to 2.01595e-005
Heightened Def Con from 2.01595e-005 to 2.01596e-005
Heightened Def Con from 2.01597e-005 to 2.01597e-005
Heightened Def Con from 2.01598e-005 to 2.016e-005
Heightened Def Con from 2.016e-005 to 2.0161e-005
Heightened Def Con from 2.01632e-005 to 2.01653e-005
Heightened Def Con from 2.02036e-005 to 2.02086e-005
Heightened Def Con from 2.02087e-005 to 2.02117e-005
Heightened Def Con from 2.03373e-005 to 2.03403e-005
Heightened Def Con from 2.06631e-005 to 2.06651e-005
Heightened Def Con from 2.0673e-005 to 2.0674e-005
Heightened Def Con from 2.06744e-005 to 2.06744e-005
Heightened Def Con from 2.06744e-005 to 2.06744e-005
Heightened Def Con from 2.06744e-005 to 2.06744e-005
Heightened Def Con from 2.06745e-005 to 2.06745e-005
Heightened Def Con from 2.06747e-005 to 2.06747e-005
Heightened Def Con from 2.06748e-005 to 2.06748e-005
Heightened Def Con from 2.06748e-005 to 2.06752e-005
Heightened Def Con from 2.06753e-005 to 2.06793e-005
Heightened Def Con from 2.0686e-005 to 2.0692e-005
Heightened Def Con from 2.26424e-005 to 2.26554e-005
Heightened Def Con from 2.27834e-005 to 2.27864e-005
Heightened Def Con from 2.2804e-005 to 2.2804e-005
Heightened Def Con from 2.2804e-005 to 2.2804e-005
Heightened Def Con from 2.2804e-005 to 2.2804e-005
Heightened Def Con from 2.2804e-005 to 2.2804e-005
Heightened Def Con from 2.2804e-005 to 2.2804e-005
Heightened Def Con from 2.2804e-005 to 2.2804e-005
Heightened Def Con from 2.2804e-005 to 2.2804e-005
Heightened Def Con from 2.2804e-005 to 2.2804e-005
Heightened Def Con from 2.2804e-005 to 2.2804e-005
Heightened Def Con from 2.2804e-005 to 2.2804e-005
Heightened Def Con from 2.2804e-005 to 2.2804e-005
Heightened Def Con from 2.2804e-005 to 2.2804e-005
Heightened Def Con from 2.2804e-005 to 2.2804e-005
Heightened Def Con from 2.2804e-005 to 2.2804e-005
Heightened Def Con from 2.2804e-005 to 2.2804e-005
Heightened Def Con from 2.2804e-005 to 2.28041e-005
Heightened Def Con from 2.28041e-005 to 2.28041e-005
Heightened Def Con from 2.28041e-005 to 2.28041e-005
Heightened Def Con from 2.28041e-005 to 2.28041e-005
Heightened Def Con from 2.28041e-005 to 2.28041e-005
Heightened Def Con from 2.28041e-005 to 2.28041e-005
Heightened Def Con from 2.28041e-005 to 2.28041e-005
Heightened Def Con from 2.28041e-005 to 2.28041e-005
Heightened Def Con from 2.28041e-005 to 2.28041e-005
Heightened Def Con from 2.28041e-005 to 2.28041e-005
Heightened Def Con from 2.28041e-005 to 2.28041e-005
Heightened Def Con from 2.28041e-005 to 2.28041e-005
Heightened Def Con from 2.28041e-005 to 2.28041e-005
Heightened Def Con from 2.28041e-005 to 2.28041e-005
Heightened Def Con from 2.28041e-005 to 2.28042e-005
Heightened Def Con from 2.28042e-005 to 2.28042e-005
Heightened Def Con from 2.28042e-005 to 2.28042e-005
Heightened Def Con from 2.28042e-005 to 2.28042e-005
Heightened Def Con from 2.28042e-005 to 2.28042e-005
Heightened Def Con from 2.28042e-005 to 2.28042e-005
Heightened Def Con from 2.28042e-005 to 2.28042e-005
Heightened Def Con from 2.28042e-005 to 2.28042e-005
Heightened Def Con from 2.28042e-005 to 2.28042e-005
Heightened Def Con from 2.28042e-005 to 2.28042e-005
Heightened Def Con from 2.28042e-005 to 2.28042e-005
Heightened Def Con from 2.28042e-005 to 2.28042e-005
Heightened Def Con from 2.28042e-005 to 2.28042e-005
Heightened Def Con from 2.28042e-005 to 2.28042e-005
Heightened Def Con from 2.28042e-005 to 2.28042e-005
Heightened Def Con from 2.28042e-005 to 2.28042e-005
Heightened Def Con from 2.28042e-005 to 2.28042e-005
Heightened Def Con from 2.28042e-005 to 2.28042e-005
Heightened Def Con from 2.28042e-005 to 2.28042e-005
Heightened Def Con from 2.28042e-005 to 2.28042e-005
Heightened Def Con from 2.28042e-005 to 2.28042e-005
Heightened Def Con from 2.28042e-005 to 2.28042e-005
Heightened Def Con from 2.28042e-005 to 2.28042e-005
Heightened Def Con from 2.28042e-005 to 2.28042e-005
Heightened Def Con from 2.28042e-005 to 2.28042e-005
Heightened Def Con from 2.28042e-005 to 2.28042e-005
Heightened Def Con from 2.28042e-005 to 2.28042e-005
Heightened Def Con from 2.28042e-005 to 2.28042e-005
Heightened Def Con from 2.28042e-005 to 2.28043e-005
Heightened Def Con from 2.28043e-005 to 2.28043e-005
Heightened Def Con from 2.28043e-005 to 2.28043e-005
Heightened Def Con from 2.28043e-005 to 2.28043e-005
Heightened Def Con from 2.28043e-005 to 2.28043e-005
Heightened Def Con from 2.28043e-005 to 2.28043e-005
Heightened Def Con from 2.28043e-005 to 2.28043e-005
Heightened Def Con from 2.28043e-005 to 2.28043e-005
Heightened Def Con from 2.28043e-005 to 2.28043e-005
Heightened Def Con from 2.28043e-005 to 2.28043e-005
Heightened Def Con from 2.28043e-005 to 2.28043e-005
Heightened Def Con from 2.28043e-005 to 2.28043e-005
Heightened Def Con from 2.28043e-005 to 2.28043e-005
Heightened Def Con from 2.28043e-005 to 2.28043e-005
Heightened Def Con from 2.28043e-005 to 2.28043e-005
Heightened Def Con from 2.28043e-005 to 2.28043e-005
Heightened Def Con from 2.28043e-005 to 2.28043e-005
Heightened Def Con from 2.28043e-005 to 2.28043e-005
Heightened Def Con from 2.28044e-005 to 2.28044e-005
Heightened Def Con from 2.28044e-005 to 2.28044e-005
Heightened Def Con from 2.28044e-005 to 2.28044e-005
Heightened Def Con from 2.28044e-005 to 2.28044e-005
Heightened Def Con from 2.28044e-005 to 2.28044e-005
Heightened Def Con from 2.28044e-005 to 2.28044e-005
Heightened Def Con from 2.28044e-005 to 2.28044e-005
Heightened Def Con from 2.28044e-005 to 2.28044e-005
Heightened Def Con from 2.28044e-005 to 2.28044e-005
Heightened Def Con from 2.28044e-005 to 2.28044e-005
Heightened Def Con from 2.28044e-005 to 2.28044e-005
Heightened Def Con from 2.28045e-005 to 2.28045e-005
Heightened Def Con from 2.28045e-005 to 2.28045e-005
Heightened Def Con from 2.28045e-005 to 2.28045e-005
Heightened Def Con from 2.28045e-005 to 2.28045e-005
Heightened Def Con from 2.28045e-005 to 2.28045e-005
Heightened Def Con from 2.28045e-005 to 2.28045e-005
Heightened Def Con from 2.28045e-005 to 2.28045e-005
Heightened Def Con from 2.28045e-005 to 2.28045e-005
Heightened Def Con from 2.28045e-005 to 2.28045e-005
Heightened Def Con from 2.28045e-005 to 2.28045e-005
Heightened Def Con from 2.28045e-005 to 2.28045e-005
Heightened Def Con from 2.28045e-005 to 2.28045e-005
Heightened Def Con from 2.28045e-005 to 2.28045e-005
Heightened Def Con from 2.28045e-005 to 2.28045e-005
Heightened Def Con from 2.28045e-005 to 2.28045e-005
Heightened Def Con from 2.28046e-005 to 2.28046e-005
Heightened Def Con from 2.28046e-005 to 2.28046e-005
Heightened Def Con from 2.28046e-005 to 2.28046e-005
Heightened Def Con from 2.28046e-005 to 2.28046e-005
Heightened Def Con from 2.28046e-005 to 2.28046e-005
Heightened Def Con from 2.28046e-005 to 2.28046e-005
Heightened Def Con from 2.28046e-005 to 2.28046e-005
Heightened Def Con from 2.28047e-005 to 2.28047e-005
Heightened Def Con from 2.28048e-005 to 2.28048e-005
Heightened Def Con from 2.28048e-005 to 2.28048e-005
Heightened Def Con from 2.28048e-005 to 2.28048e-005
Heightened Def Con from 2.28048e-005 to 2.28048e-005
Heightened Def Con from 2.28048e-005 to 2.28048e-005
Heightened Def Con from 2.28048e-005 to 2.28048e-005
Heightened Def Con from 2.28048e-005 to 2.28048e-005
Heightened Def Con from 2.28048e-005 to 2.28048e-005
Heightened Def Con from 2.28048e-005 to 2.28048e-005
Heightened Def Con from 2.28048e-005 to 2.28048e-005
Heightened Def Con from 2.28048e-005 to 2.28048e-005
Heightened Def Con from 2.28048e-005 to 2.28048e-005
Heightened Def Con from 2.28048e-005 to 2.28048e-005
Heightened Def Con from 2.28048e-005 to 2.28048e-005
Heightened Def Con from 2.28048e-005 to 2.28049e-005
Heightened Def Con from 2.28049e-005 to 2.28129e-005
Heightened Def Con from 2.28509e-005 to 2.28539e-005
Heightened Def Con from 2.30502e-005 to 2.30532e-005
Heightened Def Con from 2.31174e-005 to 2.31204e-005
Heightened Def Con from 2.31828e-005 to 2.31868e-005
Heightened Def Con from 2.33067e-005 to 2.33087e-005
Heightened Def Con from 2.33096e-005 to 2.33116e-005
Heightened Def Con from 2.33148e-005 to 2.33168e-005
Heightened Def Con from 2.33182e-005 to 2.33182e-005
Heightened Def Con from 2.33182e-005 to 2.33183e-005
Heightened Def Con from 2.33183e-005 to 2.33184e-005
Heightened Def Con from 2.33186e-005 to 2.33186e-005
Heightened Def Con from 2.33186e-005 to 2.33186e-005
Heightened Def Con from 2.33187e-005 to 2.33187e-005
Heightened Def Con from 2.33188e-005 to 2.33188e-005
Heightened Def Con from 2.33188e-005 to 2.33191e-005
Heightened Def Con from 2.33192e-005 to 2.33192e-005
Heightened Def Con from 2.33193e-005 to 2.33193e-005
Heightened Def Con from 2.33194e-005 to 2.33194e-005
Heightened Def Con from 2.33195e-005 to 2.33195e-005
Heightened Def Con from 2.33196e-005 to 2.33196e-005
Heightened Def Con from 2.33197e-005 to 2.33197e-005
Heightened Def Con from 2.33197e-005 to 2.33198e-005
Heightened Def Con from 2.33198e-005 to 2.33198e-005
Heightened Def Con from 2.33199e-005 to 2.332e-005
Heightened Def Con from 2.332e-005 to 2.332e-005
Heightened Def Con from 2.332e-005 to 2.33201e-005
Heightened Def Con from 2.33201e-005 to 2.33201e-005
Heightened Def Con from 2.33201e-005 to 2.33201e-005
Heightened Def Con from 2.33201e-005 to 2.33201e-005
Heightened Def Con from 2.33202e-005 to 2.33202e-005
Heightened Def Con from 2.33202e-005 to 2.33202e-005
Heightened Def Con from 2.33203e-005 to 2.33203e-005
Heightened Def Con from 2.33203e-005 to 2.33203e-005
Heightened Def Con from 2.33204e-005 to 2.33204e-005
Heightened Def Con from 2.33204e-005 to 2.33205e-005
Heightened Def Con from 2.33205e-005 to 2.33205e-005
Heightened Def Con from 2.33205e-005 to 2.33205e-005
Heightened Def Con from 2.33205e-005 to 2.33206e-005
Heightened Def Con from 2.33206e-005 to 2.33206e-005
Heightened Def Con from 2.33206e-005 to 2.33207e-005
Heightened Def Con from 2.33207e-005 to 2.33207e-005
Heightened Def Con from 2.33207e-005 to 2.33207e-005
Heightened Def Con from 2.33208e-005 to 2.33208e-005
Heightened Def Con from 2.33208e-005 to 2.33209e-005
Heightened Def Con from 2.33209e-005 to 2.33259e-005
Heightened Def Con from 2.33519e-005 to 2.33569e-005
Heightened Def Con from 2.4992e-005 to 2.4994e-005
Heightened Def Con from 2.50001e-005 to 2.50081e-005
Heightened Def Con from 2.50081e-005 to 2.50103e-005
Heightened Def Con from 2.51341e-005 to 2.51361e-005
Heightened Def Con from 2.51364e-005 to 2.51394e-005
Heightened Def Con from 2.5157e-005 to 2.51572e-005
Heightened Def Con from 2.51578e-005 to 2.51578e-005
Heightened Def Con from 2.51578e-005 to 2.51579e-005
Heightened Def Con from 2.51579e-005 to 2.51579e-005
Heightened Def Con from 2.51579e-005 to 2.5158e-005
Heightened Def Con from 2.5158e-005 to 2.5158e-005
Heightened Def Con from 2.5158e-005 to 2.5158e-005
Heightened Def Con from 2.5158e-005 to 2.5158e-005
Heightened Def Con from 2.5158e-005 to 2.5158e-005
Heightened Def Con from 2.5158e-005 to 2.51581e-005
Heightened Def Con from 2.51581e-005 to 2.51581e-005
Heightened Def Con from 2.51582e-005 to 2.51582e-005
Heightened Def Con from 2.51585e-005 to 2.51585e-005
Heightened Def Con from 2.51585e-005 to 2.51586e-005
Heightened Def Con from 2.51586e-005 to 2.51586e-005
Heightened Def Con from 2.51586e-005 to 2.51586e-005
Heightened Def Con from 2.51586e-005 to 2.51587e-005
Heightened Def Con from 2.51587e-005 to 2.51587e-005
Heightened Def Con from 2.51587e-005 to 2.51587e-005
Heightened Def Con from 2.51594e-005 to 2.51594e-005
Heightened Def Con from 2.51595e-005 to 2.51595e-005
Heightened Def Con from 2.51595e-005 to 2.51596e-005
Heightened Def Con from 2.51597e-005 to 2.51599e-005
Heightened Def Con from 2.51601e-005 to 2.51701e-005
Heightened Def Con from 2.52036e-005 to 2.52096e-005
Heightened Def Con from 2.52709e-005 to 2.52739e-005
Heightened Def Con from 2.53404e-005 to 2.53434e-005
Heightened Def Con from 2.55405e-005 to 2.55435e-005
Heightened Def Con from 2.56079e-005 to 2.56109e-005
Heightened Def Con from 2.56601e-005 to 2.56621e-005
Heightened Def Con from 2.56699e-005 to 2.56719e-005
Heightened Def Con from 2.56734e-005 to 2.56734e-005
Heightened Def Con from 2.56734e-005 to 2.56734e-005
Heightened Def Con from 2.56734e-005 to 2.56734e-005
Heightened Def Con from 2.56734e-005 to 2.56734e-005
Heightened Def Con from 2.56737e-005 to 2.56737e-005
Heightened Def Con from 2.56738e-005 to 2.56738e-005
Heightened Def Con from 2.56741e-005 to 2.56741e-005
Heightened Def Con from 2.56741e-005 to 2.56741e-005
Heightened Def Con from 2.56741e-005 to 2.56741e-005
Heightened Def Con from 2.56741e-005 to 2.56748e-005
Heightened Def Con from 2.56748e-005 to 2.56788e-005
Heightened Def Con from 2.56861e-005 to 2.56911e-005
Heightened Def Con from 2.57394e-005 to 2.57424e-005
Heightened Def Con from 2.57448e-005 to 2.57478e-005
Heightened Def Con from 2.75901e-005 to 2.75921e-005
Heightened Def Con from 2.76438e-005 to 2.76458e-005
Heightened Def Con from 2.76468e-005 to 2.76548e-005
Heightened Def Con from 2.77179e-005 to 2.77209e-005
Heightened Def Con from 2.7783e-005 to 2.7786e-005
Heightened Def Con from 2.78036e-005 to 2.78036e-005
Heightened Def Con from 2.78036e-005 to 2.78036e-005
Heightened Def Con from 2.78036e-005 to 2.78036e-005
Heightened Def Con from 2.78037e-005 to 2.78037e-005
Heightened Def Con from 2.78037e-005 to 2.78037e-005
Heightened Def Con from 2.78038e-005 to 2.78038e-005
Heightened Def Con from 2.78038e-005 to 2.78038e-005
Heightened Def Con from 2.78038e-005 to 2.78038e-005
Heightened Def Con from 2.78038e-005 to 2.78038e-005
Heightened Def Con from 2.78038e-005 to 2.78038e-005
Heightened Def Con from 2.78038e-005 to 2.78038e-005
Heightened Def Con from 2.78038e-005 to 2.78038e-005
Heightened Def Con from 2.78038e-005 to 2.78038e-005
Heightened Def Con from 2.78038e-005 to 2.78038e-005
Heightened Def Con from 2.78038e-005 to 2.78038e-005
Heightened Def Con from 2.78038e-005 to 2.78038e-005
Heightened Def Con from 2.78038e-005 to 2.78038e-005
Heightened Def Con from 2.78038e-005 to 2.78038e-005
Heightened Def Con from 2.78038e-005 to 2.78038e-005
Heightened Def Con from 2.78038e-005 to 2.78038e-005
Heightened Def Con from 2.78038e-005 to 2.78038e-005
Heightened Def Con from 2.78038e-005 to 2.78038e-005
Heightened Def Con from 2.78038e-005 to 2.78038e-005
Heightened Def Con from 2.78038e-005 to 2.78038e-005
Heightened Def Con from 2.78038e-005 to 2.78038e-005
Heightened Def Con from 2.78038e-005 to 2.78038e-005
Heightened Def Con from 2.78038e-005 to 2.78038e-005
Heightened Def Con from 2.78039e-005 to 2.78039e-005
Heightened Def Con from 2.78039e-005 to 2.78039e-005
Heightened Def Con from 2.78039e-005 to 2.78039e-005
Heightened Def Con from 2.78039e-005 to 2.78039e-005
Heightened Def Con from 2.78039e-005 to 2.78039e-005
Heightened Def Con from 2.78039e-005 to 2.78039e-005
Heightened Def Con from 2.78039e-005 to 2.78039e-005
Heightened Def Con from 2.78039e-005 to 2.78039e-005
Heightened Def Con from 2.78039e-005 to 2.78039e-005
Heightened Def Con from 2.78039e-005 +to 2.78039e-005
Heightened Def Con from 2.78039e-005 to 2.78039e-005
Heightened Def Con from 2.78039e-005 to 2.78039e-005
Heightened Def Con from 2.78039e-005 to 2.78039e-005
Heightened Def Con from 2.78039e-005 to 2.78039e-005
Heightened Def Con from 2.78039e-005 to 2.78039e-005
Heightened Def Con from 2.78039e-005 to 2.78039e-005
Heightened Def Con from 2.78039e-005 to 2.78039e-005
Heightened Def Con from 2.78039e-005 to 2.78039e-005
Heightened Def Con from 2.78039e-005 to 2.7804e-005
Heightened Def Con from 2.7804e-005 to 2.7804e-005
Heightened Def Con from 2.7804e-005 to 2.7804e-005
Heightened Def Con from 2.7804e-005 to 2.7804e-005
Heightened Def Con from 2.7804e-005 to 2.7804e-005
Heightened Def Con from 2.7804e-005 to 2.7804e-005
Heightened Def Con from 2.7804e-005 to 2.7804e-005
Heightened Def Con from 2.7804e-005 to 2.7804e-005
Heightened Def Con from 2.7804e-005 to 2.7804e-005
Heightened Def Con from 2.7804e-005 to 2.7804e-005
Heightened Def Con from 2.7804e-005 to 2.7804e-005
Heightened Def Con from 2.7804e-005 to 2.7804e-005
Heightened Def Con from 2.7804e-005 to 2.7804e-005
Heightened Def Con from 2.7804e-005 to 2.7804e-005
Heightened Def Con from 2.7804e-005 to 2.7804e-005
Heightened Def Con from 2.7804e-005 to 2.7804e-005
Heightened Def Con from 2.7804e-005 to 2.7804e-005
Heightened Def Con from 2.7804e-005 to 2.7804e-005
Heightened Def Con from 2.7804e-005 to 2.7804e-005
Heightened Def Con from 2.7804e-005 to 2.7804e-005
Heightened Def Con from 2.7804e-005 to 2.7804e-005
Heightened Def Con from 2.7804e-005 to 2.7804e-005
Heightened Def Con from 2.7804e-005 to 2.7804e-005
Heightened Def Con from 2.7804e-005 to 2.7804e-005
Heightened Def Con from 2.7804e-005 to 2.7804e-005
Heightened Def Con from 2.7804e-005 to 2.7804e-005
Heightened Def Con from 2.7804e-005 to 2.7804e-005
Heightened Def Con from 2.7804e-005 to 2.7804e-005
Heightened Def Con from 2.78043e-005 to 2.78043e-005
Heightened Def Con from 2.78043e-005 to 2.78043e-005
Heightened Def Con from 2.78043e-005 to 2.78043e-005
Heightened Def Con from 2.78043e-005 to 2.78043e-005
Heightened Def Con from 2.78043e-005 to 2.78043e-005
Heightened Def Con from 2.78043e-005 to 2.78043e-005
Heightened Def Con from 2.78043e-005 to 2.78043e-005
Heightened Def Con from 2.78043e-005 to 2.78043e-005
Heightened Def Con from 2.78043e-005 to 2.78043e-005
Heightened Def Con from 2.78044e-005 to 2.78044e-005
Heightened Def Con from 2.78044e-005 to 2.78044e-005
Heightened Def Con from 2.78044e-005 to 2.78044e-005
Heightened Def Con from 2.78044e-005 to 2.78044e-005
Heightened Def Con from 2.78044e-005 to 2.78044e-005
Heightened Def Con from 2.78044e-005 to 2.78044e-005
Heightened Def Con from 2.78044e-005 to 2.78044e-005
Heightened Def Con from 2.78044e-005 to 2.78044e-005
Heightened Def Con from 2.78044e-005 to 2.78048e-005
Heightened Def Con from 2.78049e-005 to 2.78119e-005
Heightened Def Con from 2.78494e-005 to 2.78524e-005
Heightened Def Con from 2.79165e-005 to 2.79195e-005
Heightened Def Con from 2.79834e-005 to 2.79864e-005
Heightened Def Con from 2.80496e-005 to 2.80526e-005
Heightened Def Con from 2.81159e-005 to 2.81189e-005
Heightened Def Con from 2.81837e-005 to 2.81867e-005
Heightened Def Con from 2.83134e-005 to 2.83154e-005
Heightened Def Con from 2.83154e-005 to 2.83154e-005
Heightened Def Con from 2.83155e-005 to 2.83155e-005
Heightened Def Con from 2.83156e-005 to 2.83158e-005
Heightened Def Con from 2.83158e-005 to 2.83159e-005
Heightened Def Con from 2.83159e-005 to 2.83159e-005
Heightened Def Con from 2.83159e-005 to 2.83159e-005
Heightened Def Con from 2.83159e-005 to 2.8316e-005
Heightened Def Con from 2.83161e-005 to 2.83161e-005
Heightened Def Con from 2.83161e-005 to 2.83161e-005
Heightened Def Con from 2.83161e-005 to 2.83161e-005
Heightened Def Con from 2.83161e-005 to 2.83161e-005
Heightened Def Con from 2.83161e-005 to 2.83162e-005
Heightened Def Con from 2.83163e-005 to 2.83164e-005
Heightened Def Con from 2.83164e-005 to 2.83164e-005
Heightened Def Con from 2.83164e-005 to 2.83164e-005
Heightened Def Con from 2.83164e-005 to 2.83164e-005
Heightened Def Con from 2.83165e-005 to 2.83166e-005
Heightened Def Con from 2.83168e-005 to 2.83168e-005
Heightened Def Con from 2.83168e-005 to 2.83168e-005
Heightened Def Con from 2.8317e-005 to 2.8317e-005
Heightened Def Con from 2.83171e-005 to 2.83171e-005
Heightened Def Con from 2.83171e-005 to 2.83172e-005
Heightened Def Con from 2.83172e-005 to 2.83172e-005
Heightened Def Con from 2.83172e-005 to 2.83172e-005
Heightened Def Con from 2.83174e-005 to 2.83174e-005
Heightened Def Con from 2.83174e-005 to 2.83174e-005
Heightened Def Con from 2.83176e-005 to 2.83176e-005
Heightened Def Con from 2.83178e-005 to 2.83178e-005
Heightened Def Con from 2.83179e-005 to 2.83179e-005
Heightened Def Con from 2.8318e-005 to 2.8318e-005
Heightened Def Con from 2.8318e-005 to 2.8323e-005
Heightened Def Con from 2.83245e-005 to 2.83275e-005
Heightened Def Con from 2.83491e-005 to 2.83541e-005
Heightened Def Con from 2.83543e-005 to 2.83573e-005
Heightened Def Con from 2.99972e-005 to 3.00082e-005
Heightened Def Con from 3.01355e-005 to 3.01385e-005
Heightened Def Con from 3.01561e-005 to 3.01561e-005
Heightened Def Con from 3.01561e-005 to 3.01561e-005
Heightened Def Con from 3.01568e-005 to 3.01569e-005
Heightened Def Con from 3.01571e-005 to 3.01571e-005
Heightened Def Con from 3.01574e-005 to 3.01574e-005
Heightened Def Con from 3.01575e-005 to 3.01575e-005
Heightened Def Con from 3.01575e-005 to 3.01575e-005
Heightened Def Con from 3.01575e-005 to 3.01575e-005
Heightened Def Con from 3.01575e-005 to 3.01576e-005
Heightened Def Con from 3.01576e-005 to 3.01576e-005
Heightened Def Con from 3.01579e-005 to 3.01579e-005
Heightened Def Con from 3.0158e-005 to 3.0158e-005
Heightened Def Con from 3.0158e-005 to 3.0158e-005
Heightened Def Con from 3.01581e-005 to 3.01581e-005
Heightened Def Con from 3.01585e-005 to 3.01585e-005
Heightened Def Con from 3.01588e-005 to 3.01594e-005
Heightened Def Con from 3.01595e-005 to 3.01695e-005
Heightened Def Con from 3.01986e-005 to 3.01997e-005
Heightened Def Con from 3.02028e-005 to 3.02068e-005
Heightened Def Con from 3.02073e-005 to 3.02103e-005
Heightened Def Con from 3.02693e-005 to 3.02723e-005
Heightened Def Con from 3.03375e-005 to 3.03405e-005
Heightened Def Con from 3.04021e-005 to 3.04061e-005
Heightened Def Con from 3.06579e-005 to 3.06599e-005
Heightened Def Con from 3.06674e-005 to 3.06694e-005
Heightened Def Con from 3.06706e-005 to 3.06706e-005
Heightened Def Con from 3.06707e-005 to 3.06707e-005
Heightened Def Con from 3.06707e-005 to 3.06707e-005
Heightened Def Con from 3.06707e-005 to 3.06707e-005
Heightened Def Con from 3.06711e-005 to 3.06711e-005
Heightened Def Con from 3.06711e-005 to 3.06711e-005
Heightened Def Con from 3.06711e-005 to 3.06711e-005
Heightened Def Con from 3.06711e-005 to 3.06715e-005
Heightened Def Con from 3.06715e-005 to 3.06755e-005
Heightened Def Con from 3.06831e-005 to 3.06881e-005
Heightened Def Con from 3.26442e-005 to 3.26473e-005
Heightened Def Con from 3.26474e-005 to 3.26554e-005
Heightened Def Con from 3.27813e-005 to 3.27833e-005
Heightened Def Con from 3.27833e-005 to 3.27863e-005
Heightened Def Con from 3.28039e-005 to 3.28039e-005
Heightened Def Con from 3.28039e-005 to 3.28039e-005
Heightened Def Con from 3.28039e-005 to 3.28039e-005
Heightened Def Con from 3.28039e-005 to 3.28039e-005
Heightened Def Con from 3.28039e-005 to 3.2804e-005
Heightened Def Con from 3.2804e-005 to 3.2804e-005
Heightened Def Con from 3.2804e-005 to 3.2804e-005
Heightened Def Con from 3.2804e-005 to 3.2804e-005
Heightened Def Con from 3.2804e-005 to 3.2804e-005
Heightened Def Con from 3.2804e-005 to 3.2804e-005
Heightened Def Con from 3.2804e-005 to 3.2804e-005
Heightened Def Con from 3.2804e-005 to 3.2804e-005
Heightened Def Con from 3.2804e-005 to 3.2804e-005
Heightened Def Con from 3.2804e-005 to 3.2804e-005
Heightened Def Con from 3.2804e-005 to 3.2804e-005
Heightened Def Con from 3.2804e-005 to 3.2804e-005
Heightened Def Con from 3.2804e-005 to 3.2804e-005
Heightened Def Con from 3.28041e-005 to 3.28041e-005
Heightened Def Con from 3.28041e-005 to 3.28041e-005
Heightened Def Con from 3.28041e-005 to 3.28041e-005
Heightened Def Con from 3.28041e-005 to 3.28041e-005
Heightened Def Con from 3.28041e-005 to 3.28041e-005
Heightened Def Con from 3.28044e-005 to 3.28044e-005
Heightened Def Con from 3.28044e-005 to 3.28044e-005
Heightened Def Con from 3.28044e-005 to 3.28044e-005
Heightened Def Con from 3.28044e-005 to 3.28044e-005
Heightened Def Con from 3.28044e-005 to 3.28044e-005
Heightened Def Con from 3.28044e-005 to 3.28044e-005
Heightened Def Con from 3.28044e-005 to 3.28044e-005
Heightened Def Con from 3.28044e-005 to 3.28044e-005
Heightened Def Con from 3.28044e-005 to 3.28044e-005
Heightened Def Con from 3.28044e-005 to 3.28044e-005
Heightened Def Con from 3.28044e-005 to 3.28044e-005
Heightened Def Con from 3.28044e-005 to 3.28044e-005
Heightened Def Con from 3.28044e-005 to 3.28044e-005
Heightened Def Con from 3.28044e-005 to 3.28044e-005
Heightened Def Con from 3.28044e-005 to 3.28044e-005
Heightened Def Con from 3.28044e-005 to 3.28044e-005
Heightened Def Con from 3.28044e-005 to 3.28044e-005
Heightened Def Con from 3.28044e-005 to 3.28044e-005
Heightened Def Con from 3.28045e-005 to 3.28045e-005
Heightened Def Con from 3.28045e-005 to 3.28045e-005
Heightened Def Con from 3.28045e-005 to 3.28045e-005
Heightened Def Con from 3.28045e-005 to 3.28045e-005
Heightened Def Con from 3.28045e-005 to 3.28045e-005
Heightened Def Con from 3.28045e-005 to 3.28045e-005
Heightened Def Con from 3.28045e-005 to 3.28045e-005
Heightened Def Con from 3.28045e-005 to 3.28045e-005
Heightened Def Con from 3.28045e-005 to 3.28045e-005
Heightened Def Con from 3.28045e-005 to 3.28045e-005
Heightened Def Con from 3.28045e-005 to 3.28045e-005
Heightened Def Con from 3.28045e-005 to 3.28045e-005
Heightened Def Con from 3.28045e-005 to 3.28045e-005
Heightened Def Con from 3.28045e-005 to 3.28045e-005
Heightened Def Con from 3.28045e-005 to 3.28046e-005
Heightened Def Con from 3.28046e-005 to 3.28046e-005
Heightened Def Con from 3.28046e-005 to 3.28046e-005
Heightened Def Con from 3.28046e-005 to 3.28046e-005
Heightened Def Con from 3.28046e-005 to 3.28046e-005
Heightened Def Con from 3.28046e-005 to 3.28046e-005
Heightened Def Con from 3.28046e-005 to 3.28046e-005
Heightened Def Con from 3.28046e-005 +to 3.28046e-005
Heightened Def Con from 3.28046e-005 to 3.28046e-005
Heightened Def Con from 3.28046e-005 to 3.28046e-005
Heightened Def Con from 3.28046e-005 to 3.28046e-005
Heightened Def Con from 3.28046e-005 to 3.28046e-005
Heightened Def Con from 3.28046e-005 to 3.28046e-005
Heightened Def Con from 3.28046e-005 to 3.28046e-005
Heightened Def Con from 3.28046e-005 to 3.28046e-005
Heightened Def Con from 3.28046e-005 to 3.28046e-005
Heightened Def Con from 3.28046e-005 to 3.28046e-005
Heightened Def Con from 3.28046e-005 to 3.28046e-005
Heightened Def Con from 3.28046e-005 to 3.28046e-005
Heightened Def Con from 3.28046e-005 to 3.28046e-005
Heightened Def Con from 3.28047e-005 to 3.28047e-005
Heightened Def Con from 3.28047e-005 to 3.28047e-005
Heightened Def Con from 3.28047e-005 to 3.28047e-005
Heightened Def Con from 3.28047e-005 to 3.28047e-005
Heightened Def Con from 3.28047e-005 to 3.28047e-005
Heightened Def Con from 3.28047e-005 to 3.28047e-005
Heightened Def Con from 3.28047e-005 to 3.28047e-005
Heightened Def Con from 3.28047e-005 to 3.28047e-005
Heightened Def Con from 3.28047e-005 to 3.28047e-005
Heightened Def Con from 3.28047e-005 to 3.28047e-005
Heightened Def Con from 3.28047e-005 to 3.28047e-005
Heightened Def Con from 3.28047e-005 to 3.28047e-005
Heightened Def Con from 3.28047e-005 to 3.28047e-005
Heightened Def Con from 3.28047e-005 to 3.28047e-005
Heightened Def Con from 3.28047e-005 to 3.28047e-005
Heightened Def Con from 3.28047e-005 to 3.28047e-005
Heightened Def Con from 3.28047e-005 to 3.28047e-005
Heightened Def Con from 3.28047e-005 to 3.28047e-005
Heightened Def Con from 3.28047e-005 to 3.28048e-005
Heightened Def Con from 3.28048e-005 to 3.28128e-005
Heightened Def Con from 3.28511e-005 to 3.28541e-005
Heightened Def Con from 3.29215e-005 to 3.29245e-005
Heightened Def Con from 3.29853e-005 to 3.29883e-005
Heightened Def Con from 3.30516e-005 to 3.30546e-005
Heightened Def Con from 3.31178e-005 to 3.31208e-005
Heightened Def Con from 3.31861e-005 to 3.31891e-005
Heightened Def Con from 3.32534e-005 to 3.32555e-005
Heightened Def Con from 3.32556e-005 to 3.32586e-005
Heightened Def Con from 3.33091e-005 to 3.33111e-005
Heightened Def Con from 3.33143e-005 to 3.33163e-005
Heightened Def Con from 3.33182e-005 to 3.33185e-005
Heightened Def Con from 3.33185e-005 to 3.33186e-005
Heightened Def Con from 3.33186e-005 to 3.33186e-005
Heightened Def Con from 3.33186e-005 to 3.33186e-005
Heightened Def Con from 3.33186e-005 to 3.33186e-005
Heightened Def Con from 3.33186e-005 to 3.33186e-005
Heightened Def Con from 3.33186e-005 to 3.33187e-005
Heightened Def Con from 3.33187e-005 to 3.33187e-005
Heightened Def Con from 3.33187e-005 to 3.33187e-005
Heightened Def Con from 3.33187e-005 to 3.33187e-005
Heightened Def Con from 3.33187e-005 to 3.33187e-005
Heightened Def Con from 3.33187e-005 to 3.33188e-005
Heightened Def Con from 3.33188e-005 to 3.33188e-005
Heightened Def Con from 3.33188e-005 to 3.33189e-005
Heightened Def Con from 3.3319e-005 to 3.3319e-005
Heightened Def Con from 3.3319e-005 to 3.3319e-005
Heightened Def Con from 3.3319e-005 to 3.3319e-005
Heightened Def Con from 3.3319e-005 to 3.3319e-005
Heightened Def Con from 3.3319e-005 to 3.33191e-005
Heightened Def Con from 3.33192e-005 to 3.33192e-005
Heightened Def Con from 3.33192e-005 to 3.33192e-005
Heightened Def Con from 3.33192e-005 to 3.33193e-005
Heightened Def Con from 3.33193e-005 to 3.33193e-005
Heightened Def Con from 3.33193e-005 to 3.33193e-005
Heightened Def Con from 3.33193e-005 to 3.33193e-005
Heightened Def Con from 3.33193e-005 to 3.33193e-005
Heightened Def Con from 3.33193e-005 to 3.33194e-005
Heightened Def Con from 3.33194e-005 to 3.33194e-005
Heightened Def Con from 3.33194e-005 to 3.33194e-005
Heightened Def Con from 3.33194e-005 to 3.33194e-005
Heightened Def Con from 3.33194e-005 to 3.33194e-005
Heightened Def Con from 3.33194e-005 to 3.33194e-005
Heightened Def Con from 3.33194e-005 to 3.33194e-005
Heightened Def Con from 3.33194e-005 to 3.33194e-005
Heightened Def Con from 3.33194e-005 to 3.33195e-005
Heightened Def Con from 3.33195e-005 to 3.33195e-005
Heightened Def Con from 3.33195e-005 to 3.33195e-005
Heightened Def Con from 3.33195e-005 to 3.33195e-005
Heightened Def Con from 3.33195e-005 to 3.33195e-005
Heightened Def Con from 3.33195e-005 to 3.33195e-005
Heightened Def Con from 3.33195e-005 to 3.33195e-005
Heightened Def Con from 3.33195e-005 to 3.33196e-005
Heightened Def Con from 3.33196e-005 to 3.33196e-005
Heightened Def Con from 3.33196e-005 to 3.33197e-005
Heightened Def Con from 3.33197e-005 to 3.33197e-005
Heightened Def Con from 3.33198e-005 to 3.33198e-005
Heightened Def Con from 3.33198e-005 to 3.33198e-005
Heightened Def Con from 3.33198e-005 to 3.33198e-005
Heightened Def Con from 3.33198e-005 to 3.33198e-005
Heightened Def Con from 3.33198e-005 to 3.33199e-005
Heightened Def Con from 3.33199e-005 to 3.33199e-005
Heightened Def Con from 3.33199e-005 to 3.33199e-005
Heightened Def Con from 3.33199e-005 to 3.33199e-005
Heightened Def Con from 3.33199e-005 to 3.33199e-005
Heightened Def Con from 3.33199e-005 to 3.33199e-005
Heightened Def Con from 3.332e-005 to 3.332e-005
Heightened Def Con from 3.332e-005 to 3.332e-005
Heightened Def Con from 3.332e-005 to 3.332e-005
Heightened Def Con from 3.332e-005 to 3.332e-005
Heightened Def Con from 3.332e-005 to 3.332e-005
Heightened Def Con from 3.332e-005 to 3.332e-005
Heightened Def Con from 3.332e-005 to 3.332e-005
Heightened Def Con from 3.332e-005 to 3.332e-005
Heightened Def Con from 3.332e-005 to 3.332e-005
Heightened Def Con from 3.33201e-005 to 3.33201e-005
Heightened Def Con from 3.33201e-005 to 3.33202e-005
Heightened Def Con from 3.33202e-005 to 3.33202e-005
Heightened Def Con from 3.33202e-005 to 3.33202e-005
Heightened Def Con from 3.33202e-005 to 3.33202e-005
Heightened Def Con from 3.33202e-005 to 3.33202e-005
Heightened Def Con from 3.33202e-005 to 3.33204e-005
Heightened Def Con from 3.33204e-005 to 3.33254e-005
Heightened Def Con from 3.33339e-005 to 3.33369e-005
Heightened Def Con from 3.49963e-005 to 3.49983e-005
Heightened Def Con from 3.49997e-005 to 3.50077e-005
Heightened Def Con from 3.51353e-005 to 3.51383e-005
Heightened Def Con from 3.51567e-005 to 3.51567e-005
Heightened Def Con from 3.5157e-005 to 3.51571e-005
Heightened Def Con from 3.51571e-005 to 3.51571e-005
Heightened Def Con from 3.51572e-005 to 3.51572e-005
Heightened Def Con from 3.51572e-005 to 3.51572e-005
Heightened Def Con from 3.51573e-005 to 3.51573e-005
Heightened Def Con from 3.51573e-005 to 3.51573e-005
Heightened Def Con from 3.51574e-005 to 3.51574e-005
Heightened Def Con from 3.51574e-005 to 3.51575e-005
Heightened Def Con from 3.51575e-005 to 3.51575e-005
Heightened Def Con from 3.51579e-005 to 3.51579e-005
Heightened Def Con from 3.51581e-005 to 3.51582e-005
Heightened Def Con from 3.51582e-005 to 3.51582e-005
Heightened Def Con from 3.51582e-005 to 3.51582e-005
Heightened Def Con from 3.51583e-005 to 3.51583e-005
Heightened Def Con from 3.51583e-005 to 3.51583e-005
Heightened Def Con from 3.51583e-005 to 3.51584e-005
Heightened Def Con from 3.51584e-005 to 3.51584e-005
Heightened Def Con from 3.51586e-005 to 3.51586e-005
Heightened Def Con from 3.51586e-005 to 3.51587e-005
Heightened Def Con from 3.51587e-005 to 3.51587e-005
Heightened Def Con from 3.51587e-005 to 3.5159e-005
Heightened Def Con from 3.5159e-005 to 3.51661e-005
Heightened Def Con from 3.51677e-005 to 3.51707e-005
Heightened Def Con from 3.52025e-005 to 3.52075e-005
Heightened Def Con from 3.52695e-005 to 3.52725e-005
Heightened Def Con from 3.53372e-005 to 3.53402e-005
Heightened Def Con from 3.54042e-005 to 3.54044e-005
Heightened Def Con from 3.54045e-005 to 3.54075e-005
Heightened Def Con from 3.54711e-005 to 3.54741e-005
Heightened Def Con from 3.55375e-005 to 3.55405e-005
Heightened Def Con from 3.56698e-005 to 3.56698e-005
Heightened Def Con from 3.56699e-005 to 3.56699e-005
Heightened Def Con from 3.56699e-005 to 3.56699e-005
Heightened Def Con from 3.567e-005 to 3.567e-005
Heightened Def Con from 3.56701e-005 to 3.56701e-005
Heightened Def Con from 3.56701e-005 to 3.56701e-005
Heightened Def Con from 3.56705e-005 to 3.56705e-005
Heightened Def Con from 3.56705e-005 to 3.56705e-005
Heightened Def Con from 3.56705e-005 to 3.56705e-005
Heightened Def Con from 3.56706e-005 to 3.56706e-005
Heightened Def Con from 3.56706e-005 to 3.56706e-005
Heightened Def Con from 3.56706e-005 to 3.56706e-005
Heightened Def Con from 3.56706e-005 to 3.56706e-005
Heightened Def Con from 3.56706e-005 to 3.56706e-005
Heightened Def Con from 3.56706e-005 to 3.56706e-005
Heightened Def Con from 3.56706e-005 to 3.56706e-005
Heightened Def Con from 3.56706e-005 to 3.56706e-005
Heightened Def Con from 3.56706e-005 to 3.56706e-005
Heightened Def Con from 3.56706e-005 to 3.56706e-005
Heightened Def Con from 3.56707e-005 to 3.56707e-005
Heightened Def Con from 3.56707e-005 to 3.56707e-005
Heightened Def Con from 3.56707e-005 to 3.56707e-005
Heightened Def Con from 3.56707e-005 to 3.56707e-005
Heightened Def Con from 3.56707e-005 to 3.56707e-005
Heightened Def Con from 3.56707e-005 to 3.56707e-005
Heightened Def Con from 3.56707e-005 to 3.56707e-005
Heightened Def Con from 3.56707e-005 to 3.56707e-005
Heightened Def Con from 3.56708e-005 to 3.56708e-005
Heightened Def Con from 3.56708e-005 to 3.56708e-005
Heightened Def Con from 3.56708e-005 to 3.56708e-005
Heightened Def Con from 3.56708e-005 to 3.56708e-005
Heightened Def Con from 3.56708e-005 to 3.56712e-005
Heightened Def Con from 3.56712e-005 to 3.56742e-005
Heightened Def Con from 3.56831e-005 to 3.56861e-005
Heightened Def Con from 3.57338e-005 to 3.57368e-005
Heightened Def Con from 3.76471e-005 to 3.76551e-005
Heightened Def Con from 3.7718e-005 +to 3.7721e-005
Heightened Def Con from 3.7783e-005 to 3.7786e-005
Heightened Def Con from 3.78022e-005 to 3.78062e-005
Heightened Def Con from 3.78075e-005 to 3.78085e-005
Heightened Def Con from 3.78085e-005 to 3.78085e-005
Heightened Def Con from 3.78085e-005 to 3.78085e-005
Heightened Def Con from 3.78085e-005 to 3.78085e-005
Heightened Def Con from 3.78085e-005 to 3.78085e-005
Heightened Def Con from 3.78085e-005 to 3.78085e-005
Heightened Def Con from 3.78085e-005 to 3.78085e-005
Heightened Def Con from 3.78085e-005 to 3.78085e-005
Heightened Def Con from 3.78085e-005 to 3.78085e-005
Heightened Def Con from 3.78085e-005 to 3.78085e-005
Heightened Def Con from 3.78085e-005 to 3.78085e-005
Heightened Def Con from 3.78085e-005 to 3.78085e-005
Heightened Def Con from 3.78085e-005 to 3.78085e-005
Heightened Def Con from 3.78085e-005 to 3.78085e-005
Heightened Def Con from 3.78085e-005 to 3.78085e-005
Heightened Def Con from 3.78085e-005 to 3.78085e-005
Heightened Def Con from 3.78085e-005 to 3.78086e-005
Heightened Def Con from 3.78086e-005 to 3.78086e-005
Heightened Def Con from 3.78086e-005 to 3.78086e-005
Heightened Def Con from 3.78086e-005 to 3.78086e-005
Heightened Def Con from 3.78086e-005 to 3.78086e-005
Heightened Def Con from 3.78086e-005 to 3.78086e-005
Heightened Def Con from 3.78086e-005 to 3.78086e-005
Heightened Def Con from 3.78086e-005 to 3.78086e-005
Heightened Def Con from 3.78086e-005 to 3.78086e-005
Heightened Def Con from 3.78086e-005 to 3.78086e-005
Heightened Def Con from 3.78086e-005 to 3.78086e-005
Heightened Def Con from 3.78086e-005 to 3.78086e-005
Heightened Def Con from 3.78086e-005 to 3.78086e-005
Heightened Def Con from 3.78086e-005 to 3.78086e-005
Heightened Def Con from 3.78086e-005 to 3.78086e-005
Heightened Def Con from 3.78086e-005 to 3.78087e-005
Heightened Def Con from 3.78087e-005 to 3.78087e-005
Heightened Def Con from 3.78087e-005 to 3.78087e-005
Heightened Def Con from 3.78087e-005 to 3.78087e-005
Heightened Def Con from 3.78087e-005 to 3.78087e-005
Heightened Def Con from 3.78087e-005 to 3.78087e-005
Heightened Def Con from 3.78087e-005 to 3.78087e-005
Heightened Def Con from 3.78088e-005 to 3.78088e-005
Heightened Def Con from 3.78088e-005 to 3.78088e-005
Heightened Def Con from 3.78088e-005 to 3.78088e-005
Heightened Def Con from 3.78088e-005 to 3.78088e-005
Heightened Def Con from 3.78088e-005 to 3.78088e-005
Heightened Def Con from 3.78088e-005 to 3.78088e-005
Heightened Def Con from 3.78088e-005 to 3.78088e-005
Heightened Def Con from 3.78088e-005 to 3.78088e-005
Heightened Def Con from 3.78088e-005 to 3.78088e-005
Heightened Def Con from 3.78088e-005 to 3.78088e-005
Heightened Def Con from 3.78088e-005 to 3.78088e-005
Heightened Def Con from 3.78088e-005 to 3.78088e-005
Heightened Def Con from 3.78088e-005 to 3.78088e-005
Heightened Def Con from 3.78088e-005 to 3.78088e-005
Heightened Def Con from 3.78088e-005 to 3.78088e-005
Heightened Def Con from 3.78088e-005 to 3.78088e-005
Heightened Def Con from 3.78088e-005 to 3.78088e-005
Heightened Def Con from 3.78088e-005 to 3.78088e-005
Heightened Def Con from 3.78088e-005 to 3.78088e-005
Heightened Def Con from 3.78088e-005 to 3.78088e-005
Heightened Def Con from 3.78088e-005 to 3.78088e-005
Heightened Def Con from 3.78088e-005 to 3.78088e-005
Heightened Def Con from 3.78088e-005 to 3.78088e-005
Heightened Def Con from 3.78088e-005 to 3.78088e-005
Heightened Def Con from 3.78088e-005 to 3.78088e-005
Heightened Def Con from 3.78088e-005 to 3.78088e-005
Heightened Def Con from 3.78088e-005 to 3.78088e-005
Heightened Def Con from 3.78088e-005 to 3.78088e-005
Heightened Def Con from 3.78089e-005 to 3.78089e-005
Heightened Def Con from 3.78089e-005 to 3.78089e-005
Heightened Def Con from 3.78089e-005 to 3.78089e-005
Heightened Def Con from 3.78089e-005 to 3.78089e-005
Heightened Def Con from 3.78089e-005 to 3.7809e-005
Heightened Def Con from 3.7809e-005 to 3.7809e-005
Heightened Def Con from 3.7809e-005 to 3.7809e-005
Heightened Def Con from 3.7809e-005 to 3.7809e-005
Heightened Def Con from 3.7809e-005 to 3.7809e-005
Heightened Def Con from 3.7809e-005 to 3.7809e-005
Heightened Def Con from 3.7809e-005 to 3.7809e-005
Heightened Def Con from 3.7809e-005 to 3.7809e-005
Heightened Def Con from 3.7809e-005 to 3.7809e-005
Heightened Def Con from 3.7809e-005 to 3.7809e-005
Heightened Def Con from 3.7809e-005 to 3.7809e-005
Heightened Def Con from 3.7809e-005 to 3.7809e-005
Heightened Def Con from 3.7809e-005 to 3.7809e-005
Heightened Def Con from 3.7809e-005 to 3.7809e-005
Heightened Def Con from 3.7809e-005 to 3.7809e-005
Heightened Def Con from 3.7809e-005 to 3.7809e-005
Heightened Def Con from 3.7809e-005 to 3.7809e-005
Heightened Def Con from 3.7809e-005 to 3.7809e-005
Heightened Def Con from 3.7809e-005 to 3.7809e-005
Heightened Def Con from 3.78091e-005 to 3.78091e-005
Heightened Def Con from 3.78091e-005 to 3.78091e-005
Heightened Def Con from 3.78091e-005 to 3.78091e-005
Heightened Def Con from 3.78091e-005 to 3.78091e-005
Heightened Def Con from 3.78091e-005 to 3.78091e-005
Heightened Def Con from 3.78091e-005 to 3.78091e-005
Heightened Def Con from 3.78091e-005 to 3.78091e-005
Heightened Def Con from 3.78091e-005 to 3.78091e-005
Heightened Def Con from 3.78091e-005 to 3.78091e-005
Heightened Def Con from 3.78091e-005 to 3.78091e-005
Heightened Def Con from 3.78091e-005 to 3.78091e-005
Heightened Def Con from 3.78091e-005 to 3.78091e-005
Heightened Def Con from 3.78091e-005 to 3.78091e-005
Heightened Def Con from 3.78091e-005 to 3.78091e-005
Heightened Def Con from 3.78091e-005 to 3.78091e-005
Heightened Def Con from 3.78091e-005 +to 3.78091e-005
Heightened Def Con from 3.78092e-005 to 3.78092e-005
Heightened Def Con from 3.78092e-005 to 3.78092e-005
Heightened Def Con from 3.78092e-005 to 3.78092e-005
Heightened Def Con from 3.78092e-005 to 3.78092e-005
Heightened Def Con from 3.78092e-005 to 3.78092e-005
Heightened Def Con from 3.78092e-005 to 3.78092e-005
Heightened Def Con from 3.78093e-005 to 3.78093e-005
Heightened Def Con from 3.78093e-005 to 3.78093e-005
Heightened Def Con from 3.78093e-005 to 3.78093e-005
Heightened Def Con from 3.78093e-005 to 3.78093e-005
Heightened Def Con from 3.78093e-005 to 3.78093e-005
Heightened Def Con from 3.78093e-005 to 3.78094e-005
Heightened Def Con from 3.78094e-005 to 3.78174e-005
Heightened Def Con from 3.78504e-005 to 3.78534e-005
Heightened Def Con from 3.79196e-005 to 3.79226e-005
Heightened Def Con from 3.79843e-005 to 3.79873e-005
Heightened Def Con from 3.81162e-005 to 3.81192e-005
Heightened Def Con from 3.81833e-005 to 3.81863e-005
Heightened Def Con from 3.82496e-005 to 3.82526e-005
Heightened Def Con from 3.83013e-005 to 3.83033e-005
Heightened Def Con from 3.83109e-005 to 3.83129e-005
Heightened Def Con from 3.83163e-005 to 3.83163e-005
Heightened Def Con from 3.83163e-005 to 3.83164e-005
Heightened Def Con from 3.83164e-005 to 3.83164e-005
Heightened Def Con from 3.83164e-005 to 3.83169e-005
Heightened Def Con from 3.83169e-005 to 3.8317e-005
Heightened Def Con from 3.8317e-005 to 3.8317e-005
Heightened Def Con from 3.8317e-005 to 3.8317e-005
Heightened Def Con from 3.8317e-005 to 3.83172e-005
Heightened Def Con from 3.83172e-005 to 3.83172e-005
Heightened Def Con from 3.83173e-005 to 3.83173e-005
Heightened Def Con from 3.83173e-005 to 3.83173e-005
Heightened Def Con from 3.83173e-005 to 3.83174e-005
Heightened Def Con from 3.83174e-005 to 3.83176e-005
Heightened Def Con from 3.83177e-005 to 3.83177e-005
Heightened Def Con from 3.83177e-005 to 3.83178e-005
Heightened Def Con from 3.83178e-005 to 3.83178e-005
Heightened Def Con from 3.83178e-005 to 3.83179e-005
Heightened Def Con from 3.83179e-005 to 3.83179e-005
Heightened Def Con from 3.8318e-005 to 3.8318e-005
Heightened Def Con from 3.8318e-005 to 3.8318e-005
Heightened Def Con from 3.8318e-005 to 3.8318e-005
Heightened Def Con from 3.8318e-005 to 3.8318e-005
Heightened Def Con from 3.8318e-005 to 3.8318e-005
Heightened Def Con from 3.8318e-005 to 3.8318e-005
Heightened Def Con from 3.8318e-005 to 3.83181e-005
Heightened Def Con from 3.83181e-005 to 3.83193e-005
Heightened Def Con from 3.83193e-005 to 3.83223e-005
Heightened Def Con from 3.83267e-005 to 3.83297e-005
Heightened Def Con from 3.83297e-005 to 3.83357e-005
Heightened Def Con from 3.83361e-005 to 3.83391e-005
Heightened Def Con from 4e-005 to 4.0008e-005
Heightened Def Con from 4.01356e-005 to 4.01386e-005
Heightened Def Con from 4.01562e-005 to 4.01565e-005
Heightened Def Con from 4.01567e-005 to 4.01571e-005
Heightened Def Con from 4.01572e-005 to 4.01572e-005
Heightened Def Con from 4.01572e-005 to 4.01572e-005
Heightened Def Con from 4.01572e-005 to 4.01572e-005
Heightened Def Con from 4.01575e-005 to 4.01575e-005
Heightened Def Con from 4.01576e-005 to 4.01576e-005
Heightened Def Con from 4.01576e-005 to 4.01576e-005
Heightened Def Con from 4.01578e-005 to 4.01578e-005
Heightened Def Con from 4.01578e-005 to 4.01578e-005
Heightened Def Con from 4.01579e-005 to 4.01579e-005
Heightened Def Con from 4.0158e-005 to 4.01581e-005
Heightened Def Con from 4.01582e-005 to 4.01582e-005
Heightened Def Con from 4.01582e-005 to 4.01583e-005
Heightened Def Con from 4.01583e-005 to 4.01583e-005
Heightened Def Con from 4.01584e-005 to 4.01584e-005
Heightened Def Con from 4.01584e-005 to 4.01585e-005
Heightened Def Con from 4.01585e-005 to 4.01585e-005
Heightened Def Con from 4.01586e-005 to 4.01586e-005
Heightened Def Con from 4.01586e-005 to 4.01586e-005
Heightened Def Con from 4.01588e-005 to 4.01591e-005
Heightened Def Con from 4.01591e-005 to 4.01701e-005
Heightened Def Con from 4.02029e-005 to 4.02069e-005
Heightened Def Con from 4.02701e-005 to 4.02731e-005
Heightened Def Con from 4.03369e-005 to 4.03399e-005
Heightened Def Con from 4.04037e-005 to 4.04067e-005
Heightened Def Con from 4.04708e-005 to 4.04738e-005
Heightened Def Con from 4.05377e-005 to 4.05407e-005
Heightened Def Con from 4.06035e-005 to 4.06065e-005
Heightened Def Con from 4.06551e-005 to 4.06571e-005
Heightened Def Con from 4.06571e-005 to 4.06591e-005
Heightened Def Con from 4.06668e-005 to 4.06688e-005
Heightened Def Con from 4.06699e-005 to 4.06699e-005
Heightened Def Con from 4.06699e-005 to 4.06699e-005
Heightened Def Con from 4.06699e-005 to 4.06699e-005
Heightened Def Con from 4.06699e-005 to 4.06699e-005
Heightened Def Con from 4.06699e-005 to 4.06699e-005
Heightened Def Con from 4.06699e-005 to 4.06699e-005
Heightened Def Con from 4.067e-005 to 4.067e-005
Heightened Def Con from 4.067e-005 to 4.067e-005
Heightened Def Con from 4.067e-005 to 4.067e-005
Heightened Def Con from 4.067e-005 to 4.067e-005
Heightened Def Con from 4.067e-005 to 4.067e-005
Heightened Def Con from 4.067e-005 to 4.067e-005
Heightened Def Con from 4.067e-005 to 4.067e-005
Heightened Def Con from 4.067e-005 to 4.067e-005
Heightened Def Con from 4.06701e-005 to 4.06701e-005
Heightened Def Con from 4.06701e-005 to 4.06701e-005
Heightened Def Con from 4.06701e-005 to 4.06701e-005
Heightened Def Con from 4.06701e-005 to 4.06701e-005
Heightened Def Con from 4.06701e-005 +to 4.06701e-005
Heightened Def Con from 4.06703e-005 to 4.06703e-005
Heightened Def Con from 4.06705e-005 to 4.06705e-005
[...]
Heightened Def Con from 0.000988319 to 0.000988319
Heightened Def Con from 0.000988319 to 0.000988319
Heightened Def Con from 0.000988319 to 0.000988319
Heightened Def Con from 0.000988319 to 0.000988319
Heightened Def Con from 0.000988319 to 0.000988319
Heightened Def Con from 0.000988319 to 0.000988319
Heightened Def Con from 0.000988319 to 0.000988319
Heightened Def Con from 0.000988319 to 0.000988319
Heightened Def Con from 0.000988319 to 0.000988319
Heightened Def Con from 0.000988319 to 0.000988319
Heightened Def Con from 0.000988319 to 0.000988319
Heightened Def Con from 0.000988319 to 0.000988319
Heightened Def Con from 0.000988319 to 0.000988319
Heightened Def Con from 0.000988319 to 0.000988319
Heightened Def Con from 0.00098832 to 0.00098832
Heightened Def Con from 0.00098832 to 0.00098832
Heightened Def Con from 0.00098832 to 0.00098832
Heightened Def Con from 0.00098832 to 0.00098832
Heightened Def Con from 0.00098832 to 0.00098832
Heightened Def Con from 0.00098832 to 0.00098832
Heightened Def Con from 0.00098832 to 0.00098832
Heightened Def Con from 0.00098832 to 0.00098832
Heightened Def Con from 0.00098832 to 0.00098832
Heightened Def Con from 0.00098832 to 0.00098832
Heightened Def Con from 0.00098832 to 0.00098832
Heightened Def Con from 0.000988321 to 0.000988321
Heightened Def Con from 0.000988321 to 0.000988321
Heightened Def Con from 0.000988321 to 0.000988321
Heightened Def Con from 0.000988321 to 0.000988321
Heightened Def Con from 0.000988321 to 0.000988321
Heightened Def Con from 0.000988321 to 0.000988321
Heightened Def Con from 0.000988321 to 0.000988321
Heightened Def Con from 0.000988321 to 0.000988326
Heightened Def Con from 0.00099 to 0.000990008
Heightened Def Con from 0.000990135 to 0.000990138
Heightened Def Con from 0.000990156 to 0.000990156
Heightened Def Con from 0.000990156 to 0.000990156
Heightened Def Con from 0.000990157 to 0.000990157
Heightened Def Con from 0.000990157 to 0.000990157
Heightened Def Con from 0.000990157 to 0.000990157
Heightened Def Con from 0.000990157 to 0.000990157
Heightened Def Con from 0.000990158 to 0.000990158
Heightened Def Con from 0.000990158 to 0.000990158
Heightened Def Con from 0.000990158 to 0.000990158
Heightened Def Con from 0.000990158 to 0.000990158
Heightened Def Con from 0.000990158 to 0.000990158
Heightened Def Con from 0.000990158 to 0.000990158
Heightened Def Con from 0.000990159 to 0.000990159
Heightened Def Con from 0.000990159 to 0.000990159
Heightened Def Con from 0.000990159 to 0.000990159
Heightened Def Con from 0.000990159 to 0.000990159
Heightened Def Con from 0.000990159 to 0.000990168
Heightened Def Con from 0.000990203 to 0.000990206
Heightened Def Con from 0.000990206 to 0.000990209
Heightened Def Con from 0.00099027 to 0.000990273
Heightened Def Con from 0.000990336 to 0.000990339
Heightened Def Con from 0.000990657 to 0.000990659
Heightened Def Con from 0.000990659 to 0.000990661
Heightened Def Con from 0.000990669 to 0.000990669
Heightened Def Con from 0.000990669 to 0.000990669
Heightened Def Con from 0.000990669 to 0.000990669
Heightened Def Con from 0.000990669 to 0.000990669
Heightened Def Con from 0.000990669 to 0.000990669
Heightened Def Con from 0.000990669 to 0.000990669
Heightened Def Con from 0.000990669 to 0.000990669
Heightened Def Con from 0.000990669 to 0.000990669
Heightened Def Con from 0.000990669 to 0.000990669
Heightened Def Con from 0.000990669 to 0.00099067
Heightened Def Con from 0.00099067 to 0.000990674
Heightened Def Con from 0.000990682 to 0.000990686
Heightened Def Con from 0.000990737 to 0.00099074
Heightened Def Con from 0.000991939 to 0.000991939
Heightened Def Con from 0.000991939 to 0.000991941
Heightened Def Con from 0.000992518 to 0.00099252
Heightened Def Con from 0.000992582 to 0.000992584
Heightened Def Con from 0.000992614 to 0.000992616
Heightened Def Con from 0.00099263 to 0.000992632
Heightened Def Con from 0.000992638 to 0.00099264
Heightened Def Con from 0.000992644 to 0.000992652
Heightened Def Con from 0.000992652 to 0.000992655
Heightened Def Con from 0.000992716 to 0.000992719
Heightened Def Con from 0.000992783 to 0.000992786
Heightened Def Con from 0.000992804 to 0.000992804
Heightened Def Con from 0.000992804 to 0.000992804
Heightened Def Con from 0.000992804 to 0.000992804
Heightened Def Con from 0.000992804 to 0.000992804
Heightened Def Con from 0.000992804 to 0.000992804
Heightened Def Con from 0.000992804 to 0.000992804
Heightened Def Con from 0.000992804 to 0.000992804
Heightened Def Con from 0.000992804 to 0.000992804
Heightened Def Con from 0.000992804 to 0.000992804
Heightened Def Con from 0.000992804 to 0.000992804
Heightened Def Con from 0.000992804 to 0.000992804
Heightened Def Con from 0.000992804 to 0.000992804
Heightened Def Con from 0.000992804 to 0.000992804
Heightened Def Con from 0.000992804 to 0.000992804
Heightened Def Con from 0.000992804 to 0.000992804
Heightened Def Con from 0.000992804 to 0.000992804
Heightened Def Con from 0.000992804 to 0.000992804
Heightened Def Con from 0.000992804 to 0.000992804
Heightened Def Con from 0.000992804 to 0.000992804
Heightened Def Con from 0.000992804 to 0.000992804
Heightened Def Con from 0.000992804 to 0.000992804
Heightened Def Con from 0.000992804 to 0.000992804
Heightened Def Con from 0.000992805 to 0.000992812
Heightened Def Con from 0.00099285 to 0.000992853
Heightened Def Con from 0.000992917 to 0.00099292
Heightened Def Con from 0.000992987 to 0.00099299
Heightened Def Con from 0.000993053 to 0.000993056
Heightened Def Con from 0.000993119 to 0.000993122
Heightened Def Con from 0.000993186 to 0.000993189
Heightened Def Con from 0.000993251 to 0.000993255
Heightened Def Con from 0.000993304 to 0.000993305
Heightened Def Con from 0.000993313 to 0.000993315
Heightened Def Con from 0.000993318 to 0.000993319
Heightened Def Con from 0.000993319 to 0.000993319
Heightened Def Con from 0.000993319 to 0.000993319
Heightened Def Con from 0.000993319 to 0.000993319
Heightened Def Con from 0.000993319 to 0.000993319
Heightened Def Con from 0.000993319 to 0.000993319
Heightened Def Con from 0.00099332 to 0.00099332
Heightened Def Con from 0.00099332 to 0.00099332
Heightened Def Con from 0.00099332 to 0.00099332
Heightened Def Con from 0.00099332 to 0.00099332
Heightened Def Con from 0.00099332 to 0.00099332
Heightened Def Con from 0.00099332 to 0.00099332
Heightened Def Con from 0.00099332 to 0.00099332
Heightened Def Con from 0.00099332 to 0.00099332
Heightened Def Con from 0.00099332 to 0.00099332
Heightened Def Con from 0.00099332 to 0.00099332
Heightened Def Con from 0.00099332 to 0.00099332
Heightened Def Con from 0.00099332 to 0.00099332
Heightened Def Con from 0.00099332 to 0.00099332
Heightened Def Con from 0.00099332 to 0.00099332
Heightened Def Con from 0.00099332 to 0.00099332
Heightened Def Con from 0.00099332 to 0.00099332
Heightened Def Con from 0.00099332 to 0.00099332
Heightened Def Con from 0.00099332 to 0.00099332
Heightened Def Con from 0.00099332 to 0.00099332
Heightened Def Con from 0.00099332 to 0.00099332
Heightened Def Con from 0.00099332 to 0.00099332
Heightened Def Con from 0.00099332 to 0.00099332
Heightened Def Con from 0.00099332 to 0.00099332
Heightened Def Con from 0.00099332 to 0.00099332
Heightened Def Con from 0.00099332 to 0.00099332
Heightened Def Con from 0.00099332 to 0.00099332
Heightened Def Con from 0.00099332 to 0.00099332
Heightened Def Con from 0.00099332 to 0.00099332
Heightened Def Con from 0.00099332 to 0.000993321
Heightened Def Con from 0.000993321 to 0.000993321
Heightened Def Con from 0.000993321 to 0.000993321
Heightened Def Con from 0.000993321 to 0.000993321
Heightened Def Con from 0.000993321 to 0.000993321
Heightened Def Con from 0.000993321 to 0.000993321
Heightened Def Con from 0.000993321 to 0.000993321
Heightened Def Con from 0.000993321 to 0.000993321
Heightened Def Con from 0.000993321 to 0.000993321
Heightened Def Con from 0.000993321 to 0.000993321
Heightened Def Con from 0.000993321 to 0.000993326
Heightened Def Con from 0.000995 to 0.000995008
Heightened Def Con from 0.000995069 to 0.000995072
Heightened Def Con from 0.000995133 to 0.000995137
Heightened Def Con from 0.000995156 to 0.000995156
Heightened Def Con from 0.000995156 to 0.000995156
Heightened Def Con from 0.000995157 to 0.000995157
Heightened Def Con from 0.000995157 to 0.000995157
Heightened Def Con from 0.000995157 to 0.000995157
Heightened Def Con from 0.000995157 to 0.000995157
Heightened Def Con from 0.000995158 to 0.000995158
Heightened Def Con from 0.000995158 to 0.00099516
Heightened Def Con from 0.00099516 to 0.000995169
Heightened Def Con from 0.000995202 to 0.000995205
Heightened Def Con from 0.000995205 to 0.000995208
Heightened Def Con from 0.000995269 to 0.000995272
Heightened Def Con from 0.000995336 to 0.000995339
Heightened Def Con from 0.000995655 to 0.000995657
Heightened Def Con from 0.000995664 to 0.000995666
Heightened Def Con from 0.000995667 to 0.000995667
Heightened Def Con from 0.000995667 to 0.000995668
Heightened Def Con from 0.000995668 to 0.000995668
Heightened Def Con from 0.000995668 to 0.000995668
Heightened Def Con from 0.000995668 to 0.000995668
Heightened Def Con from 0.000995668 to 0.000995668
Heightened Def Con from 0.000995668 to 0.000995668
Heightened Def Con from 0.000995668 to 0.000995668
Heightened Def Con from 0.000995681 to 0.000995685
Heightened Def Con from 0.000995735 to 0.000995738
Heightened Def Con from 0.000996945 to 0.000996947
Heightened Def Con from 0.000997631 to 0.000997633
Heightened Def Con from 0.000997647 to 0.000997655
Heightened Def Con from 0.000997718 to 0.000997721
Heightened Def Con from 0.000997783 to 0.000997786
Heightened Def Con from 0.000997802 to 0.000997805
Heightened Def Con from 0.000997807 to 0.000997808
Heightened Def Con from 0.000997808 to 0.000997808
Heightened Def Con from 0.000997808 to 0.000997808
Heightened Def Con from 0.000997808 to 0.000997808
Heightened Def Con from 0.000997808 to 0.000997808
Heightened Def Con from 0.000997808 to 0.000997808
Heightened Def Con from 0.000997808 to 0.000997808
Heightened Def Con from 0.000997808 to 0.000997808
Heightened Def Con from 0.000997808 to 0.000997808
Heightened Def Con from 0.000997808 to 0.000997808
Heightened Def Con from 0.000997808 to 0.000997808
Heightened Def Con from 0.000997808 to 0.000997808
Heightened Def Con from 0.000997808 to 0.000997808
Heightened Def Con from 0.000997808 to 0.000997808
Heightened Def Con from 0.000997808 to 0.000997808
Heightened Def Con from 0.000997808 to 0.000997808
Heightened Def Con from 0.000997808 to 0.000997808
Heightened Def Con from 0.000997808 to 0.000997808
Heightened Def Con from 0.000997808 to 0.000997808
Heightened Def Con from 0.000997808 to 0.000997808
Heightened Def Con from 0.000997808 to 0.000997808
Heightened Def Con from 0.000997808 to 0.000997808
Heightened Def Con from 0.000997808 to 0.000997808
Heightened Def Con from 0.000997808 to 0.000997808
Heightened Def Con from 0.000997808 to 0.000997808
Heightened Def Con from 0.000997808 to 0.000997808
Heightened Def Con from 0.000997808 to 0.000997808
Heightened Def Con from 0.000997808 to 0.000997808
Heightened Def Con from 0.000997808 to 0.000997808
Heightened Def Con from 0.000997808 +to 0.000997808
Heightened Def Con from 0.000997808 to 0.000997808
Heightened Def Con from 0.000997808 to 0.000997808
Heightened Def Con from 0.000997808 to 0.000997808
Heightened Def Con from 0.000997808 to 0.000997808
Heightened Def Con from 0.000997808 to 0.000997808
Heightened Def Con from 0.000997808 to 0.000997808
Heightened Def Con from 0.000997808 to 0.000997808
Heightened Def Con from 0.000997808 to 0.000997808
Heightened Def Con from 0.000997808 to 0.000997808
Heightened Def Con from 0.000997808 to 0.000997808
Heightened Def Con from 0.000997808 to 0.000997808
Heightened Def Con from 0.000997808 to 0.000997808
Heightened Def Con from 0.000997808 to 0.000997808
Heightened Def Con from 0.000997808 to 0.000997808
Heightened Def Con from 0.000997808 to 0.000997808
Heightened Def Con from 0.000997808 to 0.000997808
Heightened Def Con from 0.000997808 to 0.000997808
Heightened Def Con from 0.000997808 to 0.000997808
Heightened Def Con from 0.000997808 to 0.000997808
Heightened Def Con from 0.000997808 to 0.000997808
Heightened Def Con from 0.000997808 to 0.000997808
Heightened Def Con from 0.000997808 to 0.000997808
Heightened Def Con from 0.000997808 to 0.000997808
Heightened Def Con from 0.000997808 to 0.000997808
Heightened Def Con from 0.000997808 to 0.000997808
Heightened Def Con from 0.000997808 to 0.000997808
Heightened Def Con from 0.000997808 to 0.000997808
Heightened Def Con from 0.000997808 to 0.000997808
Heightened Def Con from 0.000997808 to 0.000997808
Heightened Def Con from 0.000997808 to 0.000997808
Heightened Def Con from 0.000997808 to 0.000997808
Heightened Def Con from 0.000997808 to 0.000997808
Heightened Def Con from 0.000997808 to 0.000997808
Heightened Def Con from 0.000997808 to 0.000997808
Heightened Def Con from 0.000997808 to 0.000997808
Heightened Def Con from 0.000997808 to 0.000997808
Heightened Def Con from 0.000997808 to 0.000997808
Heightened Def Con from 0.000997808 to 0.000997808
Heightened Def Con from 0.000997808 to 0.000997808
Heightened Def Con from 0.000997808 to 0.000997808
Heightened Def Con from 0.000997808 to 0.000997808
Heightened Def Con from 0.000997808 to 0.000997808
Heightened Def Con from 0.000997808 to 0.000997808
Heightened Def Con from 0.000997808 to 0.000997808
Heightened Def Con from 0.000997808 to 0.000997808
Heightened Def Con from 0.000997808 to 0.000997808
Heightened Def Con from 0.000997808 to 0.000997808
Heightened Def Con from 0.000997808 to 0.000997808
Heightened Def Con from 0.000997808 to 0.000997808
Heightened Def Con from 0.000997808 to 0.000997808
Heightened Def Con from 0.000997808 to 0.000997808
Heightened Def Con from 0.000997808 to 0.000997808
Heightened Def Con from 0.000997808 to 0.000997808
Heightened Def Con from 0.000997808 to 0.000997808
Heightened Def Con from 0.000997808 to 0.000997808
Heightened Def Con from 0.000997808 to 0.000997808
Heightened Def Con from 0.000997808 to 0.000997808
Heightened Def Con from 0.000997808 to 0.000997808
Heightened Def Con from 0.000997808 to 0.000997808
Heightened Def Con from 0.000997808 to 0.000997808
Heightened Def Con from 0.000997808 to 0.000997808
Heightened Def Con from 0.000997808 to 0.000997808
Heightened Def Con from 0.000997808 to 0.000997808
Heightened Def Con from 0.000997808 to 0.000997808
Heightened Def Con from 0.000997808 to 0.000997808
Heightened Def Con from 0.000997808 to 0.000997808
Heightened Def Con from 0.000997808 to 0.000997808
Heightened Def Con from 0.000997808 to 0.000997808
Heightened Def Con from 0.000997808 to 0.000997808
Heightened Def Con from 0.000997808 to 0.000997808
Heightened Def Con from 0.000997808 to 0.000997808
Heightened Def Con from 0.000997808 to 0.000997808
Heightened Def Con from 0.000997808 to 0.000997808
Heightened Def Con from 0.000997808 to 0.000997808
Heightened Def Con from 0.000997808 to 0.000997808
Heightened Def Con from 0.000997808 to 0.000997808
Heightened Def Con from 0.000997808 to 0.000997808
Heightened Def Con from 0.000997809 to 0.000997809
Heightened Def Con from 0.000997809 to 0.000997809
Heightened Def Con from 0.000997809 to 0.000997809
Heightened Def Con from 0.000997809 to 0.000997809
Heightened Def Con from 0.000997809 to 0.000997809
Heightened Def Con from 0.000997809 to 0.000997809
Heightened Def Con from 0.000997809 to 0.000997809
Heightened Def Con from 0.000997809 to 0.000997809
Heightened Def Con from 0.000997809 to 0.000997809
Heightened Def Con from 0.000997809 to 0.000997809
Heightened Def Con from 0.000997809 to 0.000997809
Heightened Def Con from 0.000997809 to 0.000997809
Heightened Def Con from 0.000997809 to 0.000997809
Heightened Def Con from 0.000997809 to 0.000997809
Heightened Def Con from 0.000997809 to 0.000997809
Heightened Def Con from 0.000997809 to 0.000997809
Heightened Def Con from 0.000997809 to 0.000997809
Heightened Def Con from 0.000997809 to 0.000997809
Heightened Def Con from 0.000997809 to 0.000997809
Heightened Def Con from 0.000997809 to 0.000997809
Heightened Def Con from 0.000997809 to 0.000997809
Heightened Def Con from 0.000997809 to 0.000997809
Heightened Def Con from 0.000997809 to 0.000997809
Heightened Def Con from 0.000997809 to 0.000997809
Heightened Def Con from 0.000997809 to 0.000997809
Heightened Def Con from 0.000997809 to 0.000997809
Heightened Def Con from 0.000997809 to 0.000997809
Heightened Def Con from 0.000997809 to 0.000997809
Heightened Def Con from 0.000997809 to 0.000997809
Heightened Def Con from 0.000997809 to 0.000997809
Heightened Def Con from 0.000997809 to 0.000997809
Heightened Def Con from 0.000997809 to 0.000997809
Heightened Def Con from 0.000997809 to 0.000997809
Heightened Def Con from 0.000997809 to 0.000997817
Heightened Def Con from 0.000997844 to 0.000997847
Heightened Def Con from 0.00099785 to 0.000997853
Heightened Def Con from 0.000997917 to 0.00099792
Heightened Def Con from 0.000998052 to 0.000998055
Heightened Def Con from 0.000998118 to 0.000998121
Heightened Def Con from 0.000998185 to 0.000998188
Heightened Def Con from 0.000998252 to 0.000998255
Heightened Def Con from 0.000998304 to 0.000998306
Heightened Def Con from 0.000998313 to 0.000998315
Heightened Def Con from 0.000998317 to 0.000998318
Heightened Def Con from 0.000998318 to 0.000998318
Heightened Def Con from 0.000998318 to 0.000998318
Heightened Def Con from 0.000998318 to 0.000998318
Heightened Def Con from 0.000998318 to 0.000998318
Heightened Def Con from 0.000998318 to 0.000998318
Heightened Def Con from 0.000998318 to 0.000998318
Heightened Def Con from 0.000998318 to 0.000998318
Heightened Def Con from 0.000998318 to 0.000998318
Heightened Def Con from 0.000998318 to 0.000998318
Heightened Def Con from 0.000998318 to 0.000998319
Heightened Def Con from 0.000998319 to 0.000998319
Heightened Def Con from 0.000998319 to 0.000998319
Heightened Def Con from 0.000998319 to 0.000998319
Heightened Def Con from 0.000998319 to 0.000998319
Heightened Def Con from 0.000998319 to 0.000998319
Heightened Def Con from 0.000998319 to 0.000998319
Heightened Def Con from 0.000998319 to 0.000998319
Heightened Def Con from 0.000998319 to 0.000998319
Heightened Def Con from 0.000998319 to 0.000998319
Heightened Def Con from 0.000998319 to 0.000998319
Heightened Def Con from 0.000998319 to 0.000998319
Heightened Def Con from 0.000998319 to 0.000998319
Heightened Def Con from 0.000998319 to 0.000998319
Heightened Def Con from 0.000998319 to 0.000998319
Heightened Def Con from 0.000998319 to 0.000998319
Heightened Def Con from 0.000998319 to 0.000998319
Heightened Def Con from 0.000998319 to 0.000998319
Heightened Def Con from 0.000998319 to 0.000998319
Heightened Def Con from 0.000998319 to 0.000998319
Heightened Def Con from 0.00099832 to 0.00099832
Heightened Def Con from 0.00099832 to 0.00099832
Heightened Def Con from 0.00099832 to 0.00099832
Heightened Def Con from 0.00099832 to 0.00099832
Heightened Def Con from 0.00099832 to 0.00099832
Heightened Def Con from 0.00099832 to 0.00099832
Heightened Def Con from 0.00099832 to 0.00099832
Heightened Def Con from 0.00099832 to 0.00099832
Heightened Def Con from 0.00099832 to 0.000998324
Heightened Def Con from 0.000998334 to 0.000998339
Heightened Def Con from 0.000999999 to 0.001


Measurement "vo" FAIL'ed

Measurement "il" FAIL'ed


Date: Fri Nov 08 17:46:41 2024
Total elapsed time: 480.078 seconds.

tnom = 27
temp = 27
method = modified trap
totiter = 9881747
traniter = 9881747
tranpoints = 1355588
accept = 735847
rejected = 656857
matrix size = 289
fillins = 151
solver = Normal
Thread vector: 50.8/36.6[4] 12.4/9.6[4] 36.6/23.3[4] 0.9/13.0[1]  2592/500
Matrix Compiler1: 15.82 KB object code size  10.6/9.0/[1.1]
Matrix Compiler2: 20.94 KB object code size  6.5/9.8/[1.4]

