Circuit: * C:\Users\---\Desktop\DCE\dce-g5-proyecto_integrador\Checkpoint 4\Simus\Support.asc

Direct Newton iteration for .op point succeeded.

Date: Wed Nov 06 15:44:37 2024
Total elapsed time: 2.807 seconds.

tnom = 27
temp = 27
method = modified trap
totiter = 100053
traniter = 100034
tranpoints = 50018
accept = 50018
rejected = 0
matrix size = 79
fillins = 62
solver = Normal
Thread vector: 22.1/9.2[2] 8.8/4.4[2] 3.4/2.8[2] 0.4/1.4[1]  2592/500
Matrix Compiler1: 13.54 KB object code size  4.9/3.1/[1.6]
Matrix Compiler2: 9.52 KB object code size  2.0/2.8/[0.4]

