Circuit: * F:\Facultad\Taller de Diseño de Circuitos Electrónicos - TA138\Proyecto Final\dce-g5-proyecto_integrador\Checkpoint 4\Simus\Support4.asc

Questionable use of curly braces in "b§e_abmgate yint 0 v={if(v(a)>{{vthresh}},{{vss}},{{vdd}})}"
    Error: undefined symbol in: "if([v](a)>((vthresh)),((vss)),((vdd)))"
Questionable use of curly braces in "b§e_abmgate yint 0 v={if(v(a)>{{vthresh}}&v(b)>{{vthresh}},{{vdd}},{{vss}})}"
    Error: undefined symbol in: "if([v](a)>((vthresh))&v(b)>((vthresh)),((vdd)),((vss)))"
Questionable use of curly braces in "b§e_abmgate yint 0 v={if(v(a)>{{vthresh}},{{vdd}},{{vss}})}"
    Error: undefined symbol in: "if([v](a)>((vthresh)),((vdd)),((vss)))"
Questionable use of curly braces in "b§e_abmgate yint 0 v={if(v(a)>{{vthresh}},{{vdd}},{{vss}})}"
    Error: undefined symbol in: "if([v](a)>((vthresh)),((vdd)),((vss)))"
Instance "m:u6:47": Length shorter than recommended for a level 1 MOSFET.
Instance "m:u6:51": Length shorter than recommended for a level 1 MOSFET.
Instance "m:u6:50": Length shorter than recommended for a level 1 MOSFET.
Instance "m:u6:45": Length shorter than recommended for a level 1 MOSFET.
Direct Newton iteration for .op point succeeded.
Ignoring empty pin current: Ix(u2:cii)
Ignoring empty pin current: Ix(u2:ipk)
Ignoring empty pin current: Ix(u2:vcc)
Ignoring empty pin current: Ix(u2:cii)
Ignoring empty pin current: Ix(u2:ipk)
Ignoring empty pin current: Ix(u2:vcc)
Heightened Def Con from 2.30638e-005 to 2.30649e-005
Heightened Def Con from 2.79961e-005 to 2.79993e-005
Heightened Def Con from 2.79994e-005 to 2.80344e-005
Heightened Def Con from 3.75778e-005 to 3.75809e-005
Heightened Def Con from 3.75811e-005 to 3.76201e-005
Heightened Def Con from 4.23005e-005 to 4.23015e-005
Heightened Def Con from 4.69959e-005 to 4.69969e-005
Heightened Def Con from 5.63488e-005 to 5.63498e-005
Heightened Def Con from 6.10193e-005 to 6.10403e-005
Heightened Def Con from 6.56923e-005 to 6.57133e-005
Heightened Def Con from 7.03699e-005 to 7.0373e-005
Heightened Def Con from 7.03732e-005 to 7.04142e-005
Heightened Def Con from 7.97731e-005 to 7.97741e-005
Heightened Def Con from 8.45025e-005 to 8.45035e-005
Heightened Def Con from 8.92574e-005 to 8.92584e-005
Heightened Def Con from 9.40439e-005 to 9.40829e-005
Heightened Def Con from 9.88614e-005 to 9.88617e-005
Heightened Def Con from 9.88651e-005 to 9.88654e-005
Heightened Def Con from 0.000103728 to 0.000103729
Heightened Def Con from 0.000108637 to 0.000108638
Heightened Def Con from 0.000113596 to 0.000113597
Heightened Def Con from 0.00011861 to 0.000118611
Heightened Def Con from 0.000128811 to 0.000128812
Heightened Def Con from 0.000133999 to 0.000134
Heightened Def Con from 0.000139245 to 0.000139246
Heightened Def Con from 0.000144544 to 0.000144545
Heightened Def Con from 0.000155297 to 0.000155298
Heightened Def Con from 0.000160743 to 0.000160744
Heightened Def Con from 0.000160747 to 0.000160748
Heightened Def Con from 0.000166238 to 0.00016624
Heightened Def Con from 0.0001718 to 0.000171801
Heightened Def Con from 0.000177406 to 0.000177407
Heightened Def Con from 0.000183062 to 0.000183063
Heightened Def Con from 0.000188735 to 0.000188736
Heightened Def Con from 0.00019447 to 0.000194471
Heightened Def Con from 0.000206047 to 0.000206048
Heightened Def Con from 0.000211884 to 0.000211885
Heightened Def Con from 0.000217773 to 0.000217774
Heightened Def Con from 0.000223738 to 0.000223739
Heightened Def Con from 0.000229713 to 0.000229714
Heightened Def Con from 0.000241717 to 0.000241718
Heightened Def Con from 0.000247776 to 0.000247777
Heightened Def Con from 0.000266266 to 0.000266267
Heightened Def Con from 0.000272561 to 0.000272562
Heightened Def Con from 0.000285152 to 0.000285153
Heightened Def Con from 0.000291443 to 0.000291444
Heightened Def Con from 0.00029793 to 0.000297931
Heightened Def Con from 0.000304328 to 0.000304357
Heightened Def Con from 0.00031077 to 0.000310771
Heightened Def Con from 0.000357325 to 0.000357326
Heightened Def Con from 0.000370947 to 0.000370948
Heightened Def Con from 0.000384663 to 0.000384664
Heightened Def Con from 0.000391622 to 0.000391623
Heightened Def Con from 0.000398601 to 0.000398602
Heightened Def Con from 0.000405606 to 0.000405609
Heightened Def Con from 0.000419798 to 0.000419829
Heightened Def Con from 0.000433955 to 0.000433956
Heightened Def Con from 0.000455674 to 0.000455675
Heightened Def Con from 0.000470483 to 0.000470484
Heightened Def Con from 0.000492852 to 0.000492882
Heightened Def Con from 0.00050033 to 0.000500331
Heightened Def Con from 0.000507887 to 0.000507888
Heightened Def Con from 0.000523045 to 0.000523075
Heightened Def Con from 0.000530607 to 0.000530608
Heightened Def Con from 0.000546168 to 0.000546169
Heightened Def Con from 0.000561744 to 0.000561745
Heightened Def Con from 0.000569541 to 0.000569542
Heightened Def Con from 0.000577392 to 0.000577422
Heightened Def Con from 0.000601392 to 0.000601393
Heightened Def Con from 0.000633615 to 0.000633616
Heightened Def Con from 0.000641715 to 0.000641716
Heightened Def Con from 0.000658135 to 0.000658136
Heightened Def Con from 0.000674772 to 0.000674773
Heightened Def Con from 0.000700126 to 0.000700127
Heightened Def Con from 0.000725479 to 0.00072548
Heightened Def Con from 0.000734272 to 0.000734273
Heightened Def Con from 0.000760063 to 0.000760064
Heightened Def Con from 0.000777475 to 0.000777478
Heightened Def Con from 0.000812926 to 0.000812928
Heightened Def Con from 0.000821976 to 0.000821977
Heightened Def Con from 0.000839964 to 0.000839965
Heightened Def Con from 0.000848852 to 0.000848853
Heightened Def Con from 0.000867046 to 0.000867047
Heightened Def Con from 0.000885403 to 0.000885404
Heightened Def Con from 0.000894641 to 0.000894642
Heightened Def Con from 0.00093183 to 0.000931831
Heightened Def Con from 0.000941449 to 0.00094145
Heightened Def Con from 0.000960317 to 0.000960319
Heightened Def Con from 0.00100799 to 0.00100799
Heightened Def Con from 0.00101766 to 0.00101766
Heightened Def Con from 0.00104683 to 0.00104683
Heightened Def Con from 0.00107651 to 0.00107651
Heightened Def Con from 0.00111639 to 0.00111639
Heightened Def Con from 0.00113638 to 0.00113638
Heightened Def Con from 0.00114653 to 0.00114653
Heightened Def Con from 0.00118728 to 0.00118728
Heightened Def Con from 0.00120788 to 0.00120788
Heightened Def Con from 0.00131302 to 0.00131302
Heightened Def Con from 0.00133457 to 0.00133457
Heightened Def Con from 0.00136689 to 0.00136689
Heightened Def Con from 0.00137774 to 0.00137774
Heightened Def Con from 0.00138864 to 0.00138864
Heightened Def Con from 0.00141048 to 0.00141048
Heightened Def Con from 0.00145466 to 0.00145466
Heightened Def Con from 0.00146569 to 0.00146569
Heightened Def Con from 0.00147694 to 0.00147694
Heightened Def Con from 0.00151062 to 0.00151062
Heightened Def Con from 0.00153319 to 0.0015332
Heightened Def Con from 0.00154452 to 0.00154452
Heightened Def Con from 0.00156737 to 0.00156737
Heightened Def Con from 0.00157873 to 0.00157873
Heightened Def Con from 0.00159031 to 0.00159031
Heightened Def Con from 0.00160171 to 0.00160171
Heightened Def Con from 0.00160171 to 0.00160171
Heightened Def Con from 0.00176635 to 0.00176635
Heightened Def Con from 0.00177833 to 0.00177833
Heightened Def Con from 0.00179022 to 0.00179022

Date: Fri Nov 15 01:00:17 2024
Total elapsed time: 13.338 seconds.

tnom = 27
temp = 27
method = modified trap
totiter = 613310
traniter = 613261
tranpoints = 200770
accept = 147892
rejected = 52995
matrix size = 270
fillins = 246
solver = Normal
Thread vector: 16.1/10.4[4] 5.5/3.9[4] 4.1/2.4[4] 1.0/1.3[1]  2592/500
Matrix Compiler1: 21.98 KB object code size  4.6/2.5/[1.5]
Matrix Compiler2: 25.83 KB object code size  2.2/4.7/[1.4]

