Circuit: * C:\Users\corne\OneDrive\Documentos\Diogenes\Facultad\C2\Ejercicios de Regulador Buck-20241031\buck_MC34063.asc

Per .tran options, skipping operating point for transient analysis.

Date: Wed Nov  6 11:48:34 2024
Total elapsed time: 7.565 seconds.

tnom = 27
temp = 27
method = Gear
totiter = 201730
traniter = 201730
tranpoints = 81010
accept = 73056
rejected = 7954
matrix size = 39
fillins = 27
solver = Normal
Avg thread counts: 2.0/1.0/1.0/1.0
Matrix Compiler1: 2.84 KB object code size  1.6/1.9/[0.4]
Matrix Compiler2: 3.30 KB object code size  1.0/2.6/[0.4]

