Circuit: * C:\Users\corne\OneDrive\Documentos\Diogenes\Facultad\C2\Ejercicios de Regulador Buck-20241031\Regulador_buck.asc

Direct Newton iteration for .op point succeeded.

Date: Wed Nov  6 12:50:07 2024
Total elapsed time: 0.505 seconds.

tnom = 27
temp = 27
method = modified trap
totiter = 53764
traniter = 53755
tranpoints = 20630
accept = 15950
rejected = 4680
matrix size = 11
fillins = 0
solver = Normal
Avg thread counts: 1.0/1.1/1.1/1.0
Matrix Compiler1: 512 bytes object code size  0.3/0.2/[0.2]
Matrix Compiler2: off  [0.2]/0.3/0.3

